 Abaqus/Standard 6.13-1                  DATE 10-Dec-2015 TIME 09:16:47
 SUMMARY OF JOB INFORMATION:
 STEP  INC ATT SEVERE EQUIL TOTAL  TOTAL      STEP       INC OF       DOF    IF
               DISCON ITERS ITERS  TIME/    TIME/LPF    TIME/LPF    MONITOR RIKS
               ITERS               FREQ
   1     1   1     0     1     1  0.500      0.500      0.5000    
   1     2   1     0     1     1  1.00       1.00       0.5000    
   1     3   1     0     1     1  1.50       1.50       0.5000    
   1     4   1     0     1     1  2.00       2.00       0.5000    
   1     5   1     0     1     1  2.50       2.50       0.5000    
   1     6   1     0     1     1  3.00       3.00       0.5000    
   1     7   1     0     1     1  3.50       3.50       0.5000    
   1     8   1     0     1     1  4.00       4.00       0.5000    
   1     9   1     0     1     1  4.50       4.50       0.5000    
   1    10   1     0     1     1  5.00       5.00       0.5000    
   1    11   1     0     1     1  5.50       5.50       0.5000    
   1    12   1     0     1     1  6.00       6.00       0.5000    
   1    13   1     0     1     1  6.50       6.50       0.5000    
   1    14   1     0     1     1  7.00       7.00       0.5000    
   1    15   1     0     1     1  7.50       7.50       0.5000    
   1    16   1     0     1     1  8.00       8.00       0.5000    
   1    17   1     0     1     1  8.50       8.50       0.5000    
   1    18   1     0     1     1  9.00       9.00       0.5000    
   1    19   1     0     1     1  9.50       9.50       0.5000    
   1    20   1     0     1     1  10.0       10.0       0.5000    
                          
 THE ANALYSIS HAS COMPLETED SUCCESSFULLY
