*Heading
** Job name: Job-1 Model name: Model-1
** Generated by: Abaqus/CAE 6.13-1
*Preprint, echo=NO, model=NO, history=NO, contact=NO
**
** PARTS
**
*Part, name=Block
*Node
      1,   9.41943073,   11.9138803
      2,   8.88885975,   11.6629391
      3,   8.45397949,   11.2687864
      4,   8.15224075,   10.7653666
      5,    8.0096302,   10.1960344
      6,   8.03842926,   9.60981941
      7,   8.23615742,   9.05720615
      8,   8.58578682,   8.58578682
      9,   9.05720615,   8.23615742
     10,   9.60981941,   8.03842926
     11,   10.3901806,   8.03842926
     12,   10.9427938,   8.23615742
     13,   11.4142132,   8.58578682
     14,   11.7638426,   9.05720615
     15,   11.9615707,   9.60981941
     16,   11.9903698,   10.1960344
     17,   11.8477592,   10.7653666
     18,   11.5460205,   11.2687864
     19,   11.1111403,   11.6629391
     20,   10.5805693,   11.9138803
** ... 12108 like lines cut
*Element, type=CPE4R
    1,  2667,  2828,  4093,   818
    2,  4093,  4240,  3855,   818
    3,  4985,  4241,  4456,   867
    4,  4587,   820,  4985,  4788
    5,  6132,  6015,  5912,  5997
    6,  6354, 10891, 10734,  6015
    7,  6082,  6375,  5977, 10505
    8,  5847,   873,  5650,  5364
    9,  5893,   874,  5792, 10620
   10,   876, 10740,  6108,  9881
   11, 10740,   876,  6567,   829
   12,  6806,   877,  7078,  6889
   13,   832,  6343,  6007,  5813
   14,  5813,  6164,  6049, 10795
   15,  6294,  6049,  6164,   880
   16,  6415,  6709,  9825,   834
   17,  6087,  6255,  6578,   883
   18,  6087,   883,  6254,  5954
   19, 10941,  6398,   884, 11048
   20,  8589,  8496, 11011,   886
** ... 11876 like lines cut
*Nset, nset=Block, generate
     1,  12128,      1
*Elset, elset=Block, generate
     1,  11896,      1
** Section: Block
*Solid Section, elset=Block, material=Material-1
,
*End Part
**  
**
** ASSEMBLY
**
*Assembly, name=Assembly
**  
*Instance, name=BLOCK-1, part=Block
*End Instance
**  
*Nset, nset=Set-1, instance=BLOCK-1, generate
     1,  12128,      1
*Elset, elset=Set-1, instance=BLOCK-1, generate
     1,  11896,      1
*Nset, nset=Set-2, instance=BLOCK-1
   70,  166,  167,  168,  169,  170,  171,  172,  173,  174,  175,  176,  177,  178,  179,  180
  181,  182,  183,  184,  185,  186,  187,  188,  189,  190,  191,  192,  193,  194,  195,  196
  197,  198,  199,  200,  201,  202,  203,  204,  205,  206,  207,  208,  209,  210,  211,  212
  213, 2505, 2506, 2507, 2508, 2509, 2510, 2511, 2512, 2513, 2514, 2515, 2516, 2517, 2518, 2519
 2520, 2521, 2522, 2523, 2524, 2525, 2526, 2527, 2528, 2529, 2530, 2531, 2532, 2533, 2534, 2535
 2536, 2537, 2538, 2539, 2540, 2541, 2542, 2543, 2544, 2545, 2546, 2547, 2548, 2549, 2550, 2551
 2552, 2553, 2554, 2555, 2556
*Elset, elset=Set-2, instance=BLOCK-1
   46,   47,   48,   49,  107,  155,  194,  231,  260,  262,  310,  311,  332,  357,  359,  484
  506,  526,  528,  580,  581,  582, 1453, 1454, 1499, 1526, 1551, 1574, 1598, 1619, 1639, 1659
 1678, 1696, 1711, 1724, 1739, 1754, 1767, 1780, 1802, 1811, 1818, 1826, 1832, 1838, 1843, 1846
 4148, 4150, 4151, 4153, 4154, 4155, 4156, 4164, 4165, 4166, 4177, 4185, 4186, 4187, 4190, 4192
 4193, 4195, 4196, 4249, 4250, 4253, 4254, 4259, 4262, 4383, 4384, 4386, 4387, 4388, 4389, 4390
 4391, 4392, 4394, 4396, 4397, 4399, 4400, 4402, 4450, 4456, 4458, 4460, 4471, 4497, 4498, 4499
 4500, 4502, 4504, 4505
*Nset, nset=Set-3, instance=BLOCK-1
   69,   71,   72,   73,   74,   75,   76,   77,   78,   79,   80,   81,   82,   83,   84,   85
   86,   87,   88,   89,   90,   91,   92,   93,   94,   95,   96,   97,   98,   99,  100,  101
  102,  103,  104,  105,  106,  107,  108,  109,  110,  111,  112,  113,  114,  115,  116,  117
  118, 2401, 2402, 2403, 2404, 2405, 2406, 2407, 2408, 2409, 2410, 2411, 2412, 2413, 2414, 2415
 2416, 2417, 2418, 2419, 2420, 2421, 2422, 2423, 2424, 2425, 2426, 2427, 2428, 2429, 2430, 2431
 2432, 2433, 2434, 2435, 2436, 2437, 2438, 2439, 2440, 2441, 2442, 2443, 2444, 2445, 2446, 2447
 2448, 2449, 2450, 2451, 2452
*Elset, elset=Set-3, instance=BLOCK-1
  110,  861,  866,  867,  897,  898,  899,  900,  901,  902,  903,  904,  905,  906,  907,  908
  909,  910,  911,  912,  913,  914,  915,  916,  917,  918,  919,  920,  921,  922,  923,  924
  925,  926,  927,  928,  929,  930,  931,  932,  933,  934,  935,  936, 1864, 2438, 2480, 2523
 2567, 4031, 4069, 4070, 4072, 4073, 4074, 4075, 4076, 4077, 4078, 4080, 4081, 4082, 4083, 4084
 4085, 4086, 4087, 4089, 4090, 4091, 4092, 4093, 4094, 4095, 4096, 4100, 4247, 4321, 4324, 4325
 4326, 4327, 4336, 4337, 4338, 4339, 4345, 4403, 4405, 4407, 4408, 4420, 4422, 4435, 4443, 4517
 4519, 4521, 4522, 4533
*Nset, nset=Set-4, instance=BLOCK-1
   22,   23,   24,   25,   26,   27,   28,   29,   30,   31,   32,   33,   34,   35,   36,   37
   38,   39,   40,   41,   42,   43,   44,   45,   46,   47,   48,   49,   50,   51,   52,   53
   54,   55,   56,   57,   58,   59,   60,   61,   62,   63,   64,   65,   66,   67,   68,   69
   70, 2349, 2350, 2351, 2352, 2353, 2354, 2355, 2356, 2357, 2358, 2359, 2360, 2361, 2362, 2363
 2364, 2365, 2366, 2367, 2368, 2369, 2370, 2371, 2372, 2373, 2374, 2375, 2376, 2377, 2378, 2379
 2380, 2381, 2382, 2383, 2384, 2385, 2386, 2387, 2388, 2389, 2390, 2391, 2392, 2393, 2394, 2395
 2396, 2397, 2398, 2399, 2400
*Elset, elset=Set-4, instance=BLOCK-1
   53,   55,  584,  588,  591,  592,  593,  599,  600,  605,  606,  612,  613,  619,  626,  633
  640,  645,  651,  658,  664,  671,  672,  677,  678,  684,  685,  691,  692,  697,  704,  711
  718,  725,  732,  739,  745,  752,  753,  759,  766,  767,  773,  774,  780,  786,  793,  798
  805,  811,  817,  823,  830,  831,  834,  835,  840,  841,  847,  848,  854,  860, 4031, 4035
 4037, 4038, 4039, 4040, 4066, 4148, 4246, 4267, 4269, 4270, 4277, 4279, 4281, 4282, 4283, 4284
 4286, 4287, 4293, 4295, 4297, 4298, 4299, 4300, 4302, 4303, 4307, 4308, 4309, 4310, 4311, 4317
 4410, 4414, 4415, 4417
*Elset, elset=_Surf-1_S1, internal, instance=BLOCK-1
  424,  426,  545,  896,  976, 1015, 1054, 1092, 1126, 1160, 1161, 1194, 1195, 1227, 1228, 1259
 1260, 1290, 1320, 1347, 1376, 1404, 1410, 1416, 1417, 1421, 1422, 1425, 1426, 1428, 1435, 1436
 1437, 1438, 1448, 1449, 1450, 3986, 3988, 3990, 3992, 4256, 4264, 4347, 4349, 4351, 4353, 4354
 4360, 4362, 4364, 4366, 4367, 4372, 4373, 4374, 4375, 4376, 4377, 4378, 4379, 4380, 4447, 4449
 4474, 4480, 4481, 4482, 4483, 4484, 4485, 4486, 4487, 4488, 4489, 4490, 4491, 4492, 4493, 4494
 4495, 4507, 4508
*Elset, elset=_Surf-1_S3, internal, instance=BLOCK-1
  560,  561, 1434, 1447, 1453, 4121, 4126, 4134, 4365
*Elset, elset=_Surf-1_S4, internal, instance=BLOCK-1
  897, 1452, 4109
*Elset, elset=_Surf-1_S2, internal, instance=BLOCK-1
 4007, 4009, 4011, 4465, 4466
*Surface, type=ELEMENT, name=Surf-1
_Surf-1_S1, S1
_Surf-1_S3, S3
_Surf-1_S4, S4
_Surf-1_S2, S2
*End Assembly
** 
** MATERIALS
** 
*Material, name=Material-1
*Density
 2.7e+06,
*Elastic
 7.52259e+09, 0.352214
*Concrete Damaged Plasticity
10.,  0.1, 1.16, 0.67,   0.
*Concrete Compression Hardening
 3.06996e+06,          0.
   3.417e+06, 0.000126506
 3.75583e+06, 0.000253013
 4.08644e+06, 0.000379519
 4.40885e+06, 0.000506026
 4.72304e+06, 0.000632532
 5.02902e+06, 0.000759039
 5.32678e+06, 0.000885545
 5.61634e+06,  0.00101205
 5.89768e+06,  0.00113856
 6.17081e+06,  0.00126506
 6.43573e+06,  0.00139157
 6.69243e+06,  0.00151808
 6.94092e+06,  0.00164458
  7.1812e+06,  0.00177109
 7.41327e+06,   0.0018976
 7.63712e+06,   0.0020241
 7.85277e+06,  0.00215061
  8.0602e+06,  0.00227712
 8.25941e+06,  0.00240362
** ... 81 like lines cut
*Concrete Tension Stiffening
 2.24136e+06,          0.
 2.21284e+06, 5.79457e-06
 2.18468e+06, 1.15891e-05
 2.15688e+06, 1.73837e-05
 2.12944e+06, 2.31783e-05
 2.10234e+06, 2.89729e-05
 2.07559e+06, 3.47674e-05
 2.04918e+06,  4.0562e-05
  2.0231e+06, 4.63566e-05
 1.99736e+06, 5.21511e-05
 1.97195e+06, 5.79457e-05
 1.94686e+06, 6.37403e-05
 1.92208e+06, 6.95349e-05
 1.89763e+06, 7.53294e-05
 1.87348e+06,  8.1124e-05
 1.84964e+06, 8.69186e-05
 1.82611e+06, 9.27132e-05
 1.80287e+06, 9.85077e-05
 1.77993e+06, 0.000104302
 1.75728e+06, 0.000110097
** ... 81 like lines cut
*Concrete Compression Damage
         0.,          0.
 0.00841006, 0.000126506
  0.0168201, 0.000253013
  0.0252302, 0.000379519
  0.0336403, 0.000506026
  0.0420503, 0.000632532
  0.0504604, 0.000759039
  0.0588704, 0.000885545
  0.0672805,  0.00101205
  0.0756906,  0.00113856
  0.0841006,  0.00126506
  0.0925107,  0.00139157
   0.100921,  0.00151808
   0.109331,  0.00164458
   0.117741,  0.00177109
   0.126151,   0.0018976
   0.134561,   0.0020241
   0.142971,  0.00215061
   0.151381,  0.00227712
   0.159791,  0.00240362
** ... 81 like lines cut
*Concrete Tension Damage
        0.,          0.
 0.0179482, 5.79457e-06
 0.0355742, 1.15891e-05
 0.0528837, 1.73837e-05
 0.0698825, 2.31783e-05
  0.086576, 2.89729e-05
   0.10297, 3.47674e-05
  0.119069,  4.0562e-05
   0.13488, 4.63566e-05
  0.150407, 5.21511e-05
  0.165654, 5.79457e-05
  0.180629, 6.37403e-05
  0.195334, 6.95349e-05
  0.209775, 7.53294e-05
  0.223957,  8.1124e-05
  0.237885, 8.69186e-05
  0.251562, 9.27132e-05
  0.264994, 9.85077e-05
  0.278185, 0.000104302
  0.291139, 0.000110097
** ... 81 like lines cut
** 
** BOUNDARY CONDITIONS
** 
** Name: BC-1 Type: Displacement/Rotation
*Boundary
Set-2, 1, 1
Set-2, 6, 6
** Name: BC-2 Type: Displacement/Rotation
*Boundary
Set-3, 1, 1
Set-3, 6, 6
** Name: BC-4 Type: Displacement/Rotation
*Boundary
Set-4, 2, 2
Set-4, 6, 6
** 
** PREDEFINED FIELDS
** 
** Name: Predefined Field-2   Type: Geostatic stress
*Initial Conditions, type=STRESS, GEOSTATIC
Set-1, -1e+07, 0., -9.8e+06, 20., 0.4, 0.4
** ----------------------------------------------------------------
** 
** STEP: Step-1
** 
*Step, name=Step-1, nlgeom=NO
*Geostatic
** 
** LOADS
** 
** Name: Load-1   Type: Pressure
*Dsload
Surf-1, P, 1e+07
** 
** OUTPUT REQUESTS
** 
*Restart, write, frequency=0
** 
** FIELD OUTPUT: F-Output-2
** 
*Output, field
*Element Output, directions=YES
DAMAGEC, DAMAGET
** 
** FIELD OUTPUT: F-Output-1
** 
*Output, field, variable=PRESELECT
** 
** HISTORY OUTPUT: H-Output-1
** 
*Output, history, variable=PRESELECT
*End Step
** ----------------------------------------------------------------
** 
** STEP: Step-2
** 
*Step, name=Step-2, nlgeom=NO
*Dynamic
1.,1.,1e-05
** 
** OUTPUT REQUESTS
** 
*Restart, write, frequency=0
** 
** FIELD OUTPUT: F-Output-2
** 
*Output, field, frequency=1
*Element Output, directions=YES
DAMAGEC, DAMAGET
** 
** FIELD OUTPUT: F-Output-1
** 
*Output, field, variable=PRESELECT, frequency=1
** 
** HISTORY OUTPUT: H-Output-1
** 
*Output, history, variable=PRESELECT, frequency=1
*End Step
