 Abaqus/Standard 6.13-1                  DATE 02-Mar-2016 TIME 08:17:51
 SUMMARY OF JOB INFORMATION:
 STEP  INC ATT SEVERE EQUIL TOTAL  TOTAL      STEP       INC OF       DOF    IF
               DISCON ITERS ITERS  TIME/    TIME/LPF    TIME/LPF    MONITOR RIKS
               ITERS               FREQ
   1     1   1     0     1     1  1.00       1.00       1.000     
   2     1   1U    0     4     4  1.00       0.000      1.000     
   2     1   2     0     1     1  1.10       0.0981     0.09805   
   2     2   1     0     3     3  1.20       0.196      0.09805   
   2     3   1U    0     1     1  1.20       0.196      0.09805   
   2     3   2U    0     1     1  1.20       0.196      0.02451   
   2     3   3     0     2     2  1.20       0.202      0.006128  
   2     4   1     0     1     1  1.21       0.210      0.007660  
   2     5   1     0     1     1  1.22       0.219      0.009575  
   2     6   1U    0     1     1  1.22       0.219      0.01197   
   2     6   2     0     1     1  1.22       0.222      0.002992  
   2     7   1     0     1     1  1.23       0.226      0.003740  
   2     8   1     0     1     1  1.23       0.231      0.004675  
   2     9   1     0     1     1  1.24       0.237      0.005844  
   2    10   1     0     1     1  1.24       0.244      0.007305  
   2    11   1     0     1     1  1.25       0.253      0.009132  
   2    12   1     0     1     1  1.26       0.265      0.01141   
   2    13   1U    0     1     1  1.26       0.265      0.01427   
   2    13   2     0     1     1  1.27       0.268      0.003567  
   2    14   1     0     1     1  1.27       0.273      0.004459  
   2    15   1     0     1     1  1.28       0.278      0.005574  
   2    16   1     0     2     2  1.29       0.285      0.006967  
   2    17   1     0     2     2  1.29       0.294      0.008709  
   2    18   1     0     2     2  1.30       0.305      0.01089   
   2    19   1     0     2     2  1.32       0.318      0.01361   
   2    20   1U    0     1     1  1.32       0.318      0.01701   
   2    20   2     0     2     2  1.32       0.323      0.004252  
   2    21   1     0     2     2  1.33       0.328      0.005315  
   2    22   1     0     2     2  1.33       0.335      0.006644  
   2    23   1     0     1     1  1.34       0.343      0.008305  
   2    24   1     0     1     1  1.35       0.353      0.01038   
   2    25   1     0     2     2  1.37       0.366      0.01298   
   2    26   1U    0     1     1  1.37       0.366      0.01622   
   2    26   2     0     2     2  1.37       0.370      0.004055  
   2    27   1     0     2     2  1.38       0.375      0.005069  
   2    28   1     0     1     1  1.38       0.382      0.006336  
   2    29   1     0     2     2  1.39       0.390      0.007920  
   2    30   1     0     2     2  1.40       0.399      0.009901  
   2    31   1     0     2     2  1.41       0.412      0.01238   
   2    32   1     0     3     3  1.43       0.427      0.01547   
   2    33   1U    0     1     1  1.43       0.427      0.01934   
   2    33   2     0     1     1  1.43       0.432      0.004834  
   2    34   1     0     2     2  1.44       0.438      0.006043  
   2    35   1     0     2     2  1.45       0.446      0.007554  
   2    36   1     0     2     2  1.46       0.455      0.009442  
   2    37   1     0     3     3  1.47       0.467      0.01180   
   2    38   1     0     3     3  1.48       0.482      0.01475   
   2    39   1     0     3     3  1.50       0.500      0.01844   
   2    40   1     0     3     3  1.52       0.523      0.02305   
   2    41   1     0     5     5  1.55       0.552      0.02881   
   2    42   1     0     3     3  1.58       0.581      0.02881   
   2    43   1     0     4     4  1.61       0.610      0.02881   
   2    44   1     0     4     4  1.65       0.646      0.03602   
   2    45   1     0     4     4  1.69       0.691      0.04502   
   2    46   1U    0     1     1  1.69       0.691      0.05628   
   2    46   2     0     2     2  1.70       0.705      0.01407   
   2    47   1     0     3     3  1.72       0.722      0.01759   
   2    48   1     0     2     2  1.74       0.744      0.02198   
   2    49   1     0     3     3  1.77       0.772      0.02748   
   2    50   1     0     4     4  1.81       0.806      0.03435   
   2    51   1U    0     6     6  1.81       0.806      0.04294   
   2    51   2     0     2     2  1.82       0.817      0.01073   
   2    52   1     0     3     3  1.83       0.830      0.01342   
   2    53   1     0     3     3  1.85       0.847      0.01677   
   2    54   1     0     2     2  1.87       0.868      0.02097   
   2    55   1     0     5     5  1.89       0.894      0.02621   
   2    56   1     0     4     4  1.92       0.921      0.02621   
   2    57   1     0     2     2  1.95       0.947      0.02621   
   2    58   1     0     5     5  1.98       0.979      0.03276   
   2    59   1     0     3     3  2.00       1.00       0.02051   
                          
 THE ANALYSIS HAS COMPLETED SUCCESSFULLY
