 Abaqus/Standard 6.13-1                  DATE 02-Mar-2016 TIME 08:50:19
 SUMMARY OF JOB INFORMATION:
 STEP  INC ATT SEVERE EQUIL TOTAL  TOTAL      STEP       INC OF       DOF    IF
               DISCON ITERS ITERS  TIME/    TIME/LPF    TIME/LPF    MONITOR RIKS
               ITERS               FREQ
   1     1   1     0     4     4  1.00       1.00       1.000     
   2     1   1U    0     4     4  1.00       0.000      1.000     
   2     1   2     0     2     2  1.10       0.105      0.1047    
   2     2   1     0     3     3  1.21       0.209      0.1047    
   2     3   1U    0     4     4  1.21       0.209      0.1047    
   2     3   2U    0     1     1  1.21       0.209      0.02616   
   2     3   3     0     2     2  1.22       0.216      0.006541  
   2     4   1     0     1     1  1.22       0.224      0.008176  
   2     5   1     0     1     1  1.23       0.234      0.01022   
   2     6   1     0     3     3  1.25       0.247      0.01277   
   2     7   1     0     2     2  1.26       0.263      0.01597   
   2     8   1     0     4     4  1.28       0.283      0.01996   
   2     9   1U    0     1     1  1.28       0.283      0.02495   
   2     9   2     0     1     1  1.29       0.289      0.006238  
   2    10   1     0     1     1  1.30       0.297      0.007797  
   2    11   1     0     2     2  1.31       0.307      0.009746  
   2    12   1     0     2     2  1.32       0.319      0.01218   
   2    13   1     0     2     2  1.33       0.334      0.01523   
   2    14   1     0     3     3  1.35       0.353      0.01904   
   2    15   1     0     4     4  1.38       0.377      0.02379   
   2    16   1U    0     2     2  1.38       0.377      0.02974   
   2    16   2     0     1     1  1.38       0.384      0.007436  
   2    17   1     0     1     1  1.39       0.394      0.009295  
   2    18   1     0     3     3  1.41       0.405      0.01162   
   2    19   1     0     3     3  1.42       0.420      0.01452   
   2    20   1     0     4     4  1.44       0.438      0.01815   
   2    21   1     0     2     2  1.46       0.461      0.02269   
   2    22   1     0     5     5  1.49       0.489      0.02837   
   2    23   1     0     3     3  1.52       0.517      0.02837   
   2    24   1     0     2     2  1.55       0.546      0.02837   
   2    25   1     0     4     4  1.58       0.581      0.03546   
   2    26   1U    0     1     1  1.58       0.581      0.04432   
   2    26   2     0     2     2  1.59       0.592      0.01108   
   2    27   1     0     2     2  1.61       0.606      0.01385   
   2    28   1     0     3     3  1.62       0.623      0.01731   
   2    29   1     0     3     3  1.65       0.645      0.02164   
   2    30   1     0     3     3  1.67       0.672      0.02705   
   2    31   1     0     4     4  1.71       0.706      0.03381   
   2    32   1     0     3     3  1.75       0.748      0.04227   
   2    33   1U    0     3     3  1.75       0.748      0.05284   
   2    33   2     0     1     1  1.76       0.761      0.01321   
   2    34   1     0     3     3  1.78       0.778      0.01651   
   2    35   1     0     2     2  1.80       0.799      0.02064   
   2    36   1     0     3     3  1.82       0.824      0.02580   
   2    37   1     0     3     3  1.86       0.857      0.03225   
   2    38   1     0     8     8  1.90       0.897      0.04031   
   2    39   1     0     6     6  1.94       0.937      0.04031   
   2    40   1U    0     6     6  1.94       0.937      0.04031   
   2    40   2     0     2     2  1.95       0.947      0.01008   
   2    41   1     0     2     2  1.96       0.957      0.01008   
   2    42   1     0     2     2  1.97       0.970      0.01260   
   2    43   1     0     2     2  1.99       0.986      0.01575   
   2    44   1     0     2     2  2.00       1.00       0.01421   
                          
 THE ANALYSIS HAS COMPLETED SUCCESSFULLY
