1

   Abaqus 6.13-1                                  Date 02-Mar-2016   Time 08:17:50
   For use by  under license from Dassault Systemes or its subsidiary.

                                                                                 
                                                                                 
 STEP    1     INCREMENT     1     STEP TIME    0.00    


                        S T E P       1     G E O S T A T I C   S T R E S S   A N A L Y S I S


                                                                                          

 CONVERGENCE TOLERANCE PARAMETERS FOR FORCE    
     CRITERION FOR RESIDUAL FORCE     FOR A NONLINEAR PROBLEM          5.000E-03
     CRITERION FOR DISP.    CORRECTION IN A NONLINEAR PROBLEM          1.000E-02
     INITIAL VALUE OF TIME AVERAGE FORCE                               1.000E-02
     AVERAGE FORCE     IS TIME AVERAGE FORCE    
     ALTERNATE CRIT. FOR RESIDUAL FORCE     FOR A NONLINEAR PROBLEM    2.000E-02
     CRITERION FOR ZERO FORCE     RELATIVE TO TIME AVRG. FORCE         1.000E-05
     CRITERION FOR RESIDUAL FORCE     WHEN THERE IS ZERO FLUX          1.000E-05
     CRITERION FOR DISP.    CORRECTION WHEN THERE IS ZERO FLUX         1.000E-03
     CRITERION FOR RESIDUAL FORCE     FOR A LINEAR INCREMENT           1.000E-08
     FIELD CONVERSION RATIO                                             1.00    
     CRITERION FOR ZERO FORCE     REL. TO TIME AVRG. MAX. FORCE        1.000E-05
     CRITERION FOR ZERO DISP.    RELATIVE TO CHARACTERISTIC LENGTH     1.000E-08

     VOLUMETRIC STRAIN COMPATIBILITY TOLERANCE FOR HYBRID SOLIDS       1.000E-05
     AXIAL STRAIN COMPATIBILITY TOLERANCE FOR HYBRID BEAMS             1.000E-05
     TRANS. SHEAR STRAIN COMPATIBILITY TOLERANCE FOR HYBRID BEAMS      1.000E-05
     SOFT CONTACT CONSTRAINT COMPATIBILITY TOLERANCE FOR P>P0          5.000E-03
     SOFT CONTACT CONSTRAINT COMPATIBILITY TOLERANCE FOR P=0.0         0.100    
     CONTACT FORCE ERROR TOLERANCE FOR CONVERT SDI=YES                 1.00    
     DISPLACEMENT COMPATIBILITY TOLERANCE FOR DCOUP ELEMENTS           1.000E-05
     ROTATION COMPATIBILITY TOLERANCE FOR DCOUP ELEMENTS               1.000E-05

 EQUILIBRIUM WILL BE CHECKED FOR SEVERE DISCONTINUITY ITERATIONS

 ITERATION CONTROL PARAMETERS:
     FIRST EQUILIBRIUM ITERATION FOR CONSECUTIVE DIVERGENCE CHECK              4
     EQUILIBRIUM ITERATION AFTER WHICH ALTERNATE RESIDUAL IS USED              9
     MAXIMUM EQUILIBRIUM ITERATIONS ALLOWED                                   16
     MAXIMUM ITERATIONS FOR SEVERE DISCONTINUITIES                            12
     GLOBAL STABILIZATION CONTROL IS NOT USED

          PRINT OF INCREMENT NUMBER, TIME, ETC., EVERY    1  INCREMENTS

     THE MAXIMUM NUMBER OF INCREMENTS IN THIS STEP IS                       1

          UNSYMMETRIC MATRIX STORAGE AND SOLUTION WILL BE USED

     LINEAR EXTRAPOLATION WILL BE USED

     CHARACTERISTIC ELEMENT LENGTH     0.463    

     DETAILS REGARDING ACTUAL SOLUTION WAVEFRONT REQUESTED

     DETAILED OUTPUT OF DIAGNOSTICS TO DATABASE REQUESTED

     PRINT OF INCREMENT NUMBER, TIME, ETC., TO THE MESSAGE FILE EVERY     1  INCREMENTS

     EQUATIONS ARE BEING REORDERED TO MINIMIZE WAVEFRONT

     COLLECTING MODEL CONSTRAINT INFORMATION FOR OVERCONSTRAINT CHECKS

     COLLECTING STEP CONSTRAINT INFORMATION FOR OVERCONSTRAINT CHECKS

  NUMBER OF EQUATIONS =     3802     NUMBER OF FLOATING PT. OPERATIONS =  2.02E+07

     CHECK POINT   START OF SOLVER    

     CHECK POINT  END OF SOLVER       

       ELAPSED USER TIME (SEC)      =   0.0000    
       ELAPSED SYSTEM TIME (SEC)    =   0.0000    
       ELAPSED TOTAL CPU TIME (SEC) =   0.0000    
       ELAPSED WALLCLOCK TIME (SEC) =          0

               CONVERGENCE CHECKS FOR EQUILIBRIUM ITERATION     1


 AVERAGE FORCE                      1.594E+05   TIME AVG. FORCE       1.594E+05
 LARGEST RESIDUAL FORCE            -1.562E-07   AT NODE        823   DOF  2
   INSTANCE: BLOCK-1                                                                         
 LARGEST INCREMENT OF DISP.        -1.638E-02   AT NODE        452   DOF  2
   INSTANCE: BLOCK-1                                                                         
 LARGEST CORRECTION TO DISP.       -1.638E-02   AT NODE        452   DOF  2
   INSTANCE: BLOCK-1                                                                         
          THE FORCE     EQUILIBRIUM RESPONSE WAS LINEAR IN THIS INCREMENT

 ITERATION SUMMARY FOR THE INCREMENT:   1 TOTAL ITERATIONS, OF WHICH
   0 ARE SEVERE DISCONTINUITY ITERATIONS AND  1 ARE EQUILIBRIUM ITERATIONS.

 TIME INCREMENT COMPLETED   1.00    ,  FRACTION OF STEP COMPLETED   1.00    
 STEP TIME COMPLETED        1.00    ,  TOTAL TIME COMPLETED         1.00    
1

   Abaqus 6.13-1                                  Date 02-Mar-2016   Time 08:17:51
   For use by  under license from Dassault Systemes or its subsidiary.

                                                                                 
                                                                                 
 STEP    2     INCREMENT     1     STEP TIME    0.00    


                        S T E P       2     D Y N A M I C   A N A L Y S I S - I M P L I C I T  I N T E G R A T I O N


                                                                                          

          DYNAMIC APPLICATION PACKED SCHEME IS                 TRANSIENT FIDELITY  
          HILBER-HUGHES-TAYLOR (HHT) TIME INTEGRATOR IS USED

     AUTOMATIC TIME CONTROL WITH -
          A SUGGESTED INITIAL TIME INCREMENT OF                 1.00    
          AND A TOTAL TIME PERIOD OF                            1.00    
          THE MINIMUM TIME INCREMENT ALLOWED IS                1.000E-05
          THE MAXIMUM TIME INCREMENT ALLOWED IS                 1.00    
          SCALE FACTOR ON TIME AVERAGE FORCE FOR HALF-
           -INCREMENT RESIDUAL COMPUTATIONS IS                 1.000E+03

          HILBER-HUGHES-TAYLOR METHOD PARAMETERS:  ALPHA   IS  -5.000000E-02
                                                   BETA    IS   0.275625    
                                                   GAMMA   IS   0.550000    
          SINGULAR MASS TREATMENT TYPE IS                     ERROR
          CONSERVATIVE TIME INCREMENTATION IS USED
          STEP AMPLITUDE IS                                    STEP

 CONVERGENCE TOLERANCE PARAMETERS FOR FORCE    
     CRITERION FOR RESIDUAL FORCE     FOR A NONLINEAR PROBLEM          5.000E-03
     CRITERION FOR DISP.    CORRECTION IN A NONLINEAR PROBLEM          1.000E-02
     INIT. VALUE OF TIME AVG. FORCE     IS TIME AVG. FORCE     IN PREVIOUS STEP
     AVERAGE FORCE     IS TIME AVERAGE FORCE    
     ALTERNATE CRIT. FOR RESIDUAL FORCE     FOR A NONLINEAR PROBLEM    2.000E-02
     CRITERION FOR ZERO FORCE     RELATIVE TO TIME AVRG. FORCE         1.000E-05
     CRITERION FOR RESIDUAL FORCE     WHEN THERE IS ZERO FLUX          1.000E-05
     CRITERION FOR DISP.    CORRECTION WHEN THERE IS ZERO FLUX         1.000E-03
     CRITERION FOR RESIDUAL FORCE     FOR A LINEAR INCREMENT           1.000E-08
     FIELD CONVERSION RATIO                                             1.00    
     CRITERION FOR ZERO FORCE     REL. TO TIME AVRG. MAX. FORCE        1.000E-05
     CRITERION FOR ZERO DISP.    RELATIVE TO CHARACTERISTIC LENGTH     1.000E-08

     VOLUMETRIC STRAIN COMPATIBILITY TOLERANCE FOR HYBRID SOLIDS       1.000E-05
     AXIAL STRAIN COMPATIBILITY TOLERANCE FOR HYBRID BEAMS             1.000E-05
     TRANS. SHEAR STRAIN COMPATIBILITY TOLERANCE FOR HYBRID BEAMS      1.000E-05
     SOFT CONTACT CONSTRAINT COMPATIBILITY TOLERANCE FOR P>P0          5.000E-03
     SOFT CONTACT CONSTRAINT COMPATIBILITY TOLERANCE FOR P=0.0         0.100    
     CONTACT FORCE ERROR TOLERANCE FOR CONVERT SDI=YES                 1.00    
     DISPLACEMENT COMPATIBILITY TOLERANCE FOR DCOUP ELEMENTS           1.000E-05
     ROTATION COMPATIBILITY TOLERANCE FOR DCOUP ELEMENTS               1.000E-05

 EQUILIBRIUM WILL BE CHECKED FOR SEVERE DISCONTINUITY ITERATIONS

 TIME INCREMENTATION CONTROL PARAMETERS:
     FIRST EQUILIBRIUM ITERATION FOR CONSECUTIVE DIVERGENCE CHECK              4
     EQUILIBRIUM ITERATION AT WHICH LOG. CONVERGENCE RATE CHECK BEGINS         8
     EQUILIBRIUM ITERATION AFTER WHICH ALTERNATE RESIDUAL IS USED              9
     MAXIMUM EQUILIBRIUM ITERATIONS ALLOWED                                   16
     EQUILIBRIUM ITERATION COUNT FOR CUT-BACK IN NEXT INCREMENT               10
     MAXIMUM EQUILIB. ITERS IN TWO INCREMENTS FOR TIME INCREMENT INCREASE      4
     MAXIMUM ITERATIONS FOR SEVERE DISCONTINUITIES                            50
     MAXIMUM CUT-BACKS ALLOWED IN AN INCREMENT                                 5
     MAXIMUM DISCON. ITERS IN TWO INCREMENTS FOR TIME INCREMENT INCREASE      50
     MAXIMUM CONTACT AUGMENTATIONS FOR *SURFACE BEHAVIOR,AUGMENTED LAGRANGE   50
     CONSECUTIVE INCS MEETING TIME INTEG. TOL. FOR TIME INC. INCREASE          3
     CUT-BACK FACTOR AFTER DIVERGENCE                                 0.2500    
     CUT-BACK FACTOR FOR TOO SLOW CONVERGENCE                         0.5000    
     CUT-BACK FACTOR AFTER TOO MANY EQUILIBRIUM ITERATIONS            0.7500    
     CUT-BACK FACTOR AFTER TOO MANY SEVERE DISCONTINUITY ITERATIONS   0.2500    
     CUT-BACK FACTOR AFTER PROBLEMS IN ELEMENT ASSEMBLY               0.2500    
     INCREASE FACTOR AFTER TWO INCREMENTS THAT CONVERGE QUICKLY        1.500    
     MAX. TIME INCREMENT INCREASE FACTOR ALLOWED                       1.500    
     MAX. TIME INCREMENT INCREASE FACTOR ALLOWED (DYNAMICS)            1.250    
     MAX. TIME INCREMENT INCREASE FACTOR ALLOWED (DIFFUSION)           2.000    
     MINIMUM TIME INCREMENT RATIO FOR EXTRAPOLATION TO OCCUR          0.1000    
     CUT-BACK FACTOR WHEN TIME INTEGRATION ACCURACY TOL. EXCEEDED     0.8500    
     MAX. RATIO OF TIME INTEG. MEASURE TO TOL. FOR TIME INC. INCREASE 0.7500    
     INCREASE FACTOR FOR TIME INCREMENT WHEN POSSIBLE                 0.8000    
     MIN. TIME INC. INCREASE FACTOR IN LINEAR TRANSIENT PROBLEMS      0.9500    
     MAX. RATIO OF TIME INCREMENT TO STABILITY LIMIT                   1.000    
     FRACTION OF STABILITY LIMIT FOR NEW TIME INCREMENT               0.9500    
     TIME INCREMENT INCREASE FACTOR BEFORE A TIME POINT                1.000    
     GLOBAL STABILIZATION CONTROL IS NOT USED

          PRINT OF INCREMENT NUMBER, TIME, ETC., EVERY    1  INCREMENTS

     THE MAXIMUM NUMBER OF INCREMENTS IN THIS STEP IS                     100

          UNSYMMETRIC MATRIX STORAGE AND SOLUTION WILL BE USED

     VELOCITY-BASED PARABOLIC EXTRAPOLATION WILL BE USED

     CHARACTERISTIC ELEMENT LENGTH     0.463    

     DETAILS REGARDING ACTUAL SOLUTION WAVEFRONT REQUESTED

     DETAILED OUTPUT OF DIAGNOSTICS TO DATABASE REQUESTED

     PRINT OF INCREMENT NUMBER, TIME, ETC., TO THE MESSAGE FILE EVERY     1  INCREMENTS

     COLLECTING STEP CONSTRAINT INFORMATION FOR OVERCONSTRAINT CHECKS

  NUMBER OF EQUATIONS =     3802     NUMBER OF FLOATING PT. OPERATIONS =  2.02E+07

     CHECK POINT   START OF SOLVER    

     CHECK POINT  END OF SOLVER       

       ELAPSED USER TIME (SEC)      =   0.0000    
       ELAPSED SYSTEM TIME (SEC)    =   0.0000    
       ELAPSED TOTAL CPU TIME (SEC) =   0.0000    
       ELAPSED WALLCLOCK TIME (SEC) =          0

  NUMBER OF EQUATIONS =     3802     NUMBER OF FLOATING PT. OPERATIONS =  2.02E+07

     CHECK POINT   START OF SOLVER    

     CHECK POINT  END OF SOLVER       

       ELAPSED USER TIME (SEC)      =  0.10000    
       ELAPSED SYSTEM TIME (SEC)    =   0.0000    
       ELAPSED TOTAL CPU TIME (SEC) =  0.10000    
       ELAPSED WALLCLOCK TIME (SEC) =          0


  INCREMENT     1 STARTS. ATTEMPT NUMBER  1, TIME INCREMENT   1.00    

  NUMBER OF EQUATIONS =     3802     NUMBER OF FLOATING PT. OPERATIONS =  2.02E+07

     CHECK POINT   START OF SOLVER    

     CHECK POINT  END OF SOLVER       

       ELAPSED USER TIME (SEC)      =  0.10000    
       ELAPSED SYSTEM TIME (SEC)    =   0.0000    
       ELAPSED TOTAL CPU TIME (SEC) =  0.10000    
       ELAPSED WALLCLOCK TIME (SEC) =          0

               CONVERGENCE CHECKS FOR EQUILIBRIUM ITERATION     1


 AVERAGE FORCE                      1.576E+06   TIME AVG. FORCE       1.576E+06
 LARGEST RESIDUAL FORCE            -1.301E+06   AT NODE          4   DOF  1
   INSTANCE: BLOCK-1                                                                         
 LARGEST INCREMENT OF DISP.        -3.239E-02   AT NODE         65   DOF  2
   INSTANCE: BLOCK-1                                                                         
 LARGEST CORRECTION TO DISP.       -3.239E-02   AT NODE         65   DOF  2
   INSTANCE: BLOCK-1                                                                         
          FORCE     EQUILIBRIUM NOT ACHIEVED WITHIN TOLERANCE.

  NUMBER OF EQUATIONS =     3802     NUMBER OF FLOATING PT. OPERATIONS =  2.02E+07

     CHECK POINT   START OF SOLVER    

     CHECK POINT  END OF SOLVER       

       ELAPSED USER TIME (SEC)      =   0.0000    
       ELAPSED SYSTEM TIME (SEC)    =   0.0000    
       ELAPSED TOTAL CPU TIME (SEC) =   0.0000    
       ELAPSED WALLCLOCK TIME (SEC) =          0

               CONVERGENCE CHECKS FOR EQUILIBRIUM ITERATION     2


 AVERAGE FORCE                      1.574E+06   TIME AVG. FORCE       1.574E+06
 LARGEST RESIDUAL FORCE             2.893E+05   AT NODE        502   DOF  2
   INSTANCE: BLOCK-1                                                                         
 LARGEST INCREMENT OF DISP.        -3.307E-02   AT NODE         65   DOF  2
   INSTANCE: BLOCK-1                                                                         
 LARGEST CORRECTION TO DISP.       -1.297E-03   AT NODE          6   DOF  2
   INSTANCE: BLOCK-1                                                                         
          FORCE     EQUILIBRIUM NOT ACHIEVED WITHIN TOLERANCE.

  NUMBER OF EQUATIONS =     3802     NUMBER OF FLOATING PT. OPERATIONS =  2.02E+07

     CHECK POINT   START OF SOLVER    

     CHECK POINT  END OF SOLVER       

       ELAPSED USER TIME (SEC)      =   0.0000    
       ELAPSED SYSTEM TIME (SEC)    =   0.0000    
       ELAPSED TOTAL CPU TIME (SEC) =   0.0000    
       ELAPSED WALLCLOCK TIME (SEC) =          0

               CONVERGENCE CHECKS FOR EQUILIBRIUM ITERATION     3


 AVERAGE FORCE                      1.573E+06   TIME AVG. FORCE       1.573E+06
 LARGEST RESIDUAL FORCE             2.936E+04   AT NODE       1662   DOF  2
   INSTANCE: BLOCK-1                                                                         
 LARGEST INCREMENT OF DISP.        -3.315E-02   AT NODE         65   DOF  2
   INSTANCE: BLOCK-1                                                                         
 LARGEST CORRECTION TO DISP.       -2.326E-04   AT NODE        403   DOF  2
   INSTANCE: BLOCK-1                                                                         
          FORCE     EQUILIBRIUM NOT ACHIEVED WITHIN TOLERANCE.

  NUMBER OF EQUATIONS =     3802     NUMBER OF FLOATING PT. OPERATIONS =  2.02E+07

     CHECK POINT   START OF SOLVER    

     CHECK POINT  END OF SOLVER       

       ELAPSED USER TIME (SEC)      =   0.0000    
       ELAPSED SYSTEM TIME (SEC)    =   0.0000    
       ELAPSED TOTAL CPU TIME (SEC) =   0.0000    
       ELAPSED WALLCLOCK TIME (SEC) =          0

               CONVERGENCE CHECKS FOR EQUILIBRIUM ITERATION     4


 AVERAGE FORCE                      1.573E+06   TIME AVG. FORCE       1.573E+06
 LARGEST RESIDUAL FORCE             1.260E+03   AT NODE        661   DOF  1
   INSTANCE: BLOCK-1                                                                         
 LARGEST INCREMENT OF DISP.        -3.315E-02   AT NODE         65   DOF  2
   INSTANCE: BLOCK-1                                                                         
 LARGEST CORRECTION TO DISP.       -3.211E-05   AT NODE          4   DOF  1
   INSTANCE: BLOCK-1                                                                         
          THE FORCE     EQUILIBRIUM EQUATIONS HAVE CONVERGED

  MAXIMUM HALF-INCREMENT FORCE RESIDUAL IS   1.364E+10 AND OCCURS AT NODE         72 INSTANCE BLOCK-1                                                                         
 

 ***NOTE: THE TIME INTEGRATION ACCURACY TOLERANCE HAS BEEN EXCEEDED.


  INCREMENT     1 STARTS. ATTEMPT NUMBER  2, TIME INCREMENT  9.805E-02

  NUMBER OF EQUATIONS =     3802     NUMBER OF FLOATING PT. OPERATIONS =  2.02E+07

     CHECK POINT   START OF SOLVER    

     CHECK POINT  END OF SOLVER       

       ELAPSED USER TIME (SEC)      =  0.10000    
       ELAPSED SYSTEM TIME (SEC)    =   0.0000    
       ELAPSED TOTAL CPU TIME (SEC) =  0.10000    
       ELAPSED WALLCLOCK TIME (SEC) =          0

               CONVERGENCE CHECKS FOR EQUILIBRIUM ITERATION     1


 AVERAGE FORCE                      3.737E+05   TIME AVG. FORCE       3.737E+05
 LARGEST RESIDUAL FORCE             3.399E-08   AT NODE       1011   DOF  2
   INSTANCE: BLOCK-1                                                                         
 LARGEST INCREMENT OF DISP.        -5.290E-03   AT NODE         65   DOF  2
   INSTANCE: BLOCK-1                                                                         
 LARGEST CORRECTION TO DISP.       -5.290E-03   AT NODE         65   DOF  2
   INSTANCE: BLOCK-1                                                                         
          THE FORCE     EQUILIBRIUM RESPONSE WAS LINEAR IN THIS INCREMENT

  MAXIMUM HALF-INCREMENT FORCE RESIDUAL IS  -1.280E+08 AND OCCURS AT NODE        639 INSTANCE BLOCK-1                                                                         

 ITERATION SUMMARY FOR THE INCREMENT:   1 TOTAL ITERATIONS, OF WHICH
   0 ARE SEVERE DISCONTINUITY ITERATIONS AND  1 ARE EQUILIBRIUM ITERATIONS.

 TIME INCREMENT COMPLETED  9.805E-02,  FRACTION OF STEP COMPLETED  9.805E-02
 STEP TIME COMPLETED       9.805E-02,  TOTAL TIME COMPLETED         1.10    


  INCREMENT     2 STARTS. ATTEMPT NUMBER  1, TIME INCREMENT  9.805E-02

  NUMBER OF EQUATIONS =     3802     NUMBER OF FLOATING PT. OPERATIONS =  2.02E+07

     CHECK POINT   START OF SOLVER    

     CHECK POINT  END OF SOLVER       

       ELAPSED USER TIME (SEC)      =   0.0000    
       ELAPSED SYSTEM TIME (SEC)    =   0.0000    
       ELAPSED TOTAL CPU TIME (SEC) =   0.0000    
       ELAPSED WALLCLOCK TIME (SEC) =          0

               CONVERGENCE CHECKS FOR EQUILIBRIUM ITERATION     1


 AVERAGE FORCE                      6.424E+05   TIME AVG. FORCE       5.081E+05
 LARGEST RESIDUAL FORCE            -7.474E+04   AT NODE          4   DOF  1
   INSTANCE: BLOCK-1                                                                         
 LARGEST INCREMENT OF DISP.        -6.795E-03   AT NODE        827   DOF  2
   INSTANCE: BLOCK-1                                                                         
 LARGEST CORRECTION TO DISP.        1.079E-02   AT NODE         72   DOF  2
   INSTANCE: BLOCK-1                                                                         
          FORCE     EQUILIBRIUM NOT ACHIEVED WITHIN TOLERANCE.

  NUMBER OF EQUATIONS =     3802     NUMBER OF FLOATING PT. OPERATIONS =  2.02E+07

     CHECK POINT   START OF SOLVER    

     CHECK POINT  END OF SOLVER       

       ELAPSED USER TIME (SEC)      =   0.0000    
       ELAPSED SYSTEM TIME (SEC)    =   0.0000    
       ELAPSED TOTAL CPU TIME (SEC) =   0.0000    
       ELAPSED WALLCLOCK TIME (SEC) =          0

               CONVERGENCE CHECKS FOR EQUILIBRIUM ITERATION     2


 AVERAGE FORCE                      6.422E+05   TIME AVG. FORCE       5.080E+05
 LARGEST RESIDUAL FORCE            -3.915E+03   AT NODE          4   DOF  1
   INSTANCE: BLOCK-1                                                                         
 LARGEST INCREMENT OF DISP.        -6.796E-03   AT NODE        827   DOF  2
   INSTANCE: BLOCK-1                                                                         
 LARGEST CORRECTION TO DISP.       -4.829E-05   AT NODE          4   DOF  1
   INSTANCE: BLOCK-1                                                                         
          FORCE     EQUILIBRIUM NOT ACHIEVED WITHIN TOLERANCE.

  NUMBER OF EQUATIONS =     3802     NUMBER OF FLOATING PT. OPERATIONS =  2.02E+07

     CHECK POINT   START OF SOLVER    

     CHECK POINT  END OF SOLVER       

       ELAPSED USER TIME (SEC)      =   0.0000    
       ELAPSED SYSTEM TIME (SEC)    =   0.0000    
       ELAPSED TOTAL CPU TIME (SEC) =   0.0000    
       ELAPSED WALLCLOCK TIME (SEC) =          0

               CONVERGENCE CHECKS FOR EQUILIBRIUM ITERATION     3


 AVERAGE FORCE                      6.422E+05   TIME AVG. FORCE       5.079E+05
 LARGEST RESIDUAL FORCE             -23.2       AT NODE          4   DOF  1
   INSTANCE: BLOCK-1                                                                         
 LARGEST INCREMENT OF DISP.        -6.796E-03   AT NODE        827   DOF  2
   INSTANCE: BLOCK-1                                                                         
 LARGEST CORRECTION TO DISP.       -1.892E-06   AT NODE          4   DOF  1
   INSTANCE: BLOCK-1                                                                         
          THE FORCE     EQUILIBRIUM EQUATIONS HAVE CONVERGED

  MAXIMUM HALF-INCREMENT FORCE RESIDUAL IS   2.313E+07 AND OCCURS AT NODE        516 INSTANCE BLOCK-1                                                                         

 ITERATION SUMMARY FOR THE INCREMENT:   3 TOTAL ITERATIONS, OF WHICH
   0 ARE SEVERE DISCONTINUITY ITERATIONS AND  3 ARE EQUILIBRIUM ITERATIONS.

 TIME INCREMENT COMPLETED  9.805E-02,  FRACTION OF STEP COMPLETED  0.196    
 STEP TIME COMPLETED       0.196    ,  TOTAL TIME COMPLETED         1.20    


  INCREMENT     3 STARTS. ATTEMPT NUMBER  1, TIME INCREMENT  9.805E-02

 ***WARNING: THE PLASTICITY/CREEP/CONNECTOR FRICTION ALGORITHM DID NOT CONVERGE 
             AT 6 POINTS
 

 ***NOTE: MATERIAL CALCULATIONS FAILED TO CONVERGE OR WERE NOT ATTEMPTED AT ONE 
          OR MORE POINTS. CONVERGENCE IS JUDGED UNLIKELY.

 ***WARNING: CONVERGENCE JUDGED UNLIKELY.  INCREMENT WILL BE ATTEMPTED AGAIN 
             WITH A TIME INCREMENT OF 2.45128E-02


  INCREMENT     3 STARTS. ATTEMPT NUMBER  2, TIME INCREMENT  2.451E-02

  NUMBER OF EQUATIONS =     3802     NUMBER OF FLOATING PT. OPERATIONS =  2.02E+07

     CHECK POINT   START OF SOLVER    

     CHECK POINT  END OF SOLVER       

       ELAPSED USER TIME (SEC)      =  0.10000    
       ELAPSED SYSTEM TIME (SEC)    =   0.0000    
       ELAPSED TOTAL CPU TIME (SEC) =  0.10000    
       ELAPSED WALLCLOCK TIME (SEC) =          0
 

 ***WARNING: THE SYSTEM MATRIX HAS 9 NEGATIVE EIGENVALUES.

     NEGATIVE EIGENVALUES MEAN THAT THE SYSTEM MATRIX IS NOT 
     POSITIVE DEFINITE:
     FOR EXAMPLE, A BIFURCATION (BUCKLING) LOAD MAY HAVE BEEN EXCEEDED.

 ***WARNING: THE PLASTICITY/CREEP/CONNECTOR FRICTION ALGORITHM DID NOT CONVERGE 
             AT 1 POINTS
 

 ***NOTE: MATERIAL CALCULATIONS FAILED TO CONVERGE OR WERE NOT ATTEMPTED AT ONE 
          OR MORE POINTS. CONVERGENCE IS JUDGED UNLIKELY.

 ***WARNING: CONVERGENCE JUDGED UNLIKELY.  INCREMENT WILL BE ATTEMPTED AGAIN 
             WITH A TIME INCREMENT OF 6.12819E-03


  INCREMENT     3 STARTS. ATTEMPT NUMBER  3, TIME INCREMENT  6.128E-03

  NUMBER OF EQUATIONS =     3802     NUMBER OF FLOATING PT. OPERATIONS =  2.02E+07

     CHECK POINT   START OF SOLVER    

     CHECK POINT  END OF SOLVER       

       ELAPSED USER TIME (SEC)      =   0.0000    
       ELAPSED SYSTEM TIME (SEC)    =   0.0000    
       ELAPSED TOTAL CPU TIME (SEC) =   0.0000    
       ELAPSED WALLCLOCK TIME (SEC) =          0

               CONVERGENCE CHECKS FOR EQUILIBRIUM ITERATION     1


 AVERAGE FORCE                      6.480E+05   TIME AVG. FORCE       5.546E+05
 LARGEST RESIDUAL FORCE            -2.158E+04   AT NODE        662   DOF  1
   INSTANCE: BLOCK-1                                                                         
 LARGEST INCREMENT OF DISP.        -5.317E-04   AT NODE       1294   DOF  2
   INSTANCE: BLOCK-1                                                                         
 LARGEST CORRECTION TO DISP.       -5.317E-04   AT NODE       1294   DOF  2
   INSTANCE: BLOCK-1                                                                         
          FORCE     EQUILIBRIUM NOT ACHIEVED WITHIN TOLERANCE.

  NUMBER OF EQUATIONS =     3802     NUMBER OF FLOATING PT. OPERATIONS =  2.02E+07

     CHECK POINT   START OF SOLVER    

     CHECK POINT  END OF SOLVER       

       ELAPSED USER TIME (SEC)      =   0.0000    
       ELAPSED SYSTEM TIME (SEC)    =   0.0000    
       ELAPSED TOTAL CPU TIME (SEC) =   0.0000    
       ELAPSED WALLCLOCK TIME (SEC) =          0

               CONVERGENCE CHECKS FOR EQUILIBRIUM ITERATION     2


 AVERAGE FORCE                      6.480E+05   TIME AVG. FORCE       5.546E+05
 LARGEST RESIDUAL FORCE              3.38       AT NODE        409   DOF  1
   INSTANCE: BLOCK-1                                                                         
 LARGEST INCREMENT OF DISP.        -5.317E-04   AT NODE       1294   DOF  2
   INSTANCE: BLOCK-1                                                                         
 LARGEST CORRECTION TO DISP.        6.885E-07   AT NODE        409   DOF  1
   INSTANCE: BLOCK-1                                                                         
          THE FORCE     EQUILIBRIUM EQUATIONS HAVE CONVERGED

  MAXIMUM HALF-INCREMENT FORCE RESIDUAL IS  -5.795E+05 AND OCCURS AT NODE         72 INSTANCE BLOCK-1                                                                         
          TIME INCREMENT MAY NOW INCREASE TO    7.660E-03

 ITERATION SUMMARY FOR THE INCREMENT:   2 TOTAL ITERATIONS, OF WHICH
   0 ARE SEVERE DISCONTINUITY ITERATIONS AND  2 ARE EQUILIBRIUM ITERATIONS.

 TIME INCREMENT COMPLETED  6.128E-03,  FRACTION OF STEP COMPLETED  0.202    
 STEP TIME COMPLETED       0.202    ,  TOTAL TIME COMPLETED         1.20    


  INCREMENT     4 STARTS. ATTEMPT NUMBER  1, TIME INCREMENT  7.660E-03

  NUMBER OF EQUATIONS =     3802     NUMBER OF FLOATING PT. OPERATIONS =  2.02E+07

     CHECK POINT   START OF SOLVER    

     CHECK POINT  END OF SOLVER       

       ELAPSED USER TIME (SEC)      =   0.0000    
       ELAPSED SYSTEM TIME (SEC)    =   0.0000    
       ELAPSED TOTAL CPU TIME (SEC) =   0.0000    
       ELAPSED WALLCLOCK TIME (SEC) =          0

               CONVERGENCE CHECKS FOR EQUILIBRIUM ITERATION     1


 AVERAGE FORCE                      6.663E+05   TIME AVG. FORCE       5.826E+05
 LARGEST RESIDUAL FORCE             -25.6       AT NODE          4   DOF  1
   INSTANCE: BLOCK-1                                                                         
 LARGEST INCREMENT OF DISP.        -6.799E-04   AT NODE       1503   DOF  2
   INSTANCE: BLOCK-1                                                                         
 LARGEST CORRECTION TO DISP.        1.586E-04   AT NODE         72   DOF  2
   INSTANCE: BLOCK-1                                                                         
 ESTIMATE OF DISP.    CORRECTION    4.710E-10
 FORCE     EQUILIB. ACCEPTED BASED ON SMALL RESIDUAL AND ESTIMATED CORRECTION

  MAXIMUM HALF-INCREMENT FORCE RESIDUAL IS  -7.871E+05 AND OCCURS AT NODE        639 INSTANCE BLOCK-1                                                                         
          TIME INCREMENT MAY NOW INCREASE TO    9.575E-03

 ITERATION SUMMARY FOR THE INCREMENT:   1 TOTAL ITERATIONS, OF WHICH
   0 ARE SEVERE DISCONTINUITY ITERATIONS AND  1 ARE EQUILIBRIUM ITERATIONS.

 TIME INCREMENT COMPLETED  7.660E-03,  FRACTION OF STEP COMPLETED  0.210    
 STEP TIME COMPLETED       0.210    ,  TOTAL TIME COMPLETED         1.21    


  INCREMENT     5 STARTS. ATTEMPT NUMBER  1, TIME INCREMENT  9.575E-03

  NUMBER OF EQUATIONS =     3802     NUMBER OF FLOATING PT. OPERATIONS =  2.02E+07

     CHECK POINT   START OF SOLVER    

     CHECK POINT  END OF SOLVER       

       ELAPSED USER TIME (SEC)      =  0.10000    
       ELAPSED SYSTEM TIME (SEC)    =   0.0000    
       ELAPSED TOTAL CPU TIME (SEC) =  0.10000    
       ELAPSED WALLCLOCK TIME (SEC) =          0

               CONVERGENCE CHECKS FOR EQUILIBRIUM ITERATION     1


 AVERAGE FORCE                      6.922E+05   TIME AVG. FORCE       6.045E+05
 LARGEST RESIDUAL FORCE             -27.4       AT NODE       1660   DOF  2
   INSTANCE: BLOCK-1                                                                         
 LARGEST INCREMENT OF DISP.        -8.993E-04   AT NODE          7   DOF  2
   INSTANCE: BLOCK-1                                                                         
 LARGEST CORRECTION TO DISP.        2.825E-04   AT NODE         71   DOF  2
   INSTANCE: BLOCK-1                                                                         
 ESTIMATE OF DISP.    CORRECTION    9.351E-10
 FORCE     EQUILIB. ACCEPTED BASED ON SMALL RESIDUAL AND ESTIMATED CORRECTION

  MAXIMUM HALF-INCREMENT FORCE RESIDUAL IS  -1.087E+06 AND OCCURS AT NODE        565 INSTANCE BLOCK-1                                                                         
          TIME INCREMENT MAY NOW INCREASE TO    1.197E-02

 ITERATION SUMMARY FOR THE INCREMENT:   1 TOTAL ITERATIONS, OF WHICH
   0 ARE SEVERE DISCONTINUITY ITERATIONS AND  1 ARE EQUILIBRIUM ITERATIONS.

 TIME INCREMENT COMPLETED  9.575E-03,  FRACTION OF STEP COMPLETED  0.219    
 STEP TIME COMPLETED       0.219    ,  TOTAL TIME COMPLETED         1.22    


  INCREMENT     6 STARTS. ATTEMPT NUMBER  1, TIME INCREMENT  1.197E-02

 ***WARNING: THE PLASTICITY/CREEP/CONNECTOR FRICTION ALGORITHM DID NOT CONVERGE 
             AT 3 POINTS
 

 ***NOTE: MATERIAL CALCULATIONS FAILED TO CONVERGE OR WERE NOT ATTEMPTED AT ONE 
          OR MORE POINTS. CONVERGENCE IS JUDGED UNLIKELY.

 ***WARNING: CONVERGENCE JUDGED UNLIKELY.  INCREMENT WILL BE ATTEMPTED AGAIN 
             WITH A TIME INCREMENT OF 2.99228E-03


  INCREMENT     6 STARTS. ATTEMPT NUMBER  2, TIME INCREMENT  2.992E-03

  NUMBER OF EQUATIONS =     3802     NUMBER OF FLOATING PT. OPERATIONS =  2.02E+07

     CHECK POINT   START OF SOLVER    

     CHECK POINT  END OF SOLVER       

       ELAPSED USER TIME (SEC)      =   0.0000    
       ELAPSED SYSTEM TIME (SEC)    =   0.0000    
       ELAPSED TOTAL CPU TIME (SEC) =   0.0000    
       ELAPSED WALLCLOCK TIME (SEC) =          0

               CONVERGENCE CHECKS FOR EQUILIBRIUM ITERATION     1


 AVERAGE FORCE                      6.948E+05   TIME AVG. FORCE       6.195E+05
 LARGEST RESIDUAL FORCE             -2.99       AT NODE          4   DOF  1
   INSTANCE: BLOCK-1                                                                         
 LARGEST INCREMENT OF DISP.        -2.977E-04   AT NODE          7   DOF  2
   INSTANCE: BLOCK-1                                                                         
 LARGEST CORRECTION TO DISP.       -1.676E-05   AT NODE       1641   DOF  2
   INSTANCE: BLOCK-1                                                                         
 ESTIMATE OF DISP.    CORRECTION   -9.093E-12
 FORCE     EQUILIB. ACCEPTED BASED ON SMALL RESIDUAL AND ESTIMATED CORRECTION

  MAXIMUM HALF-INCREMENT FORCE RESIDUAL IS  -9.807E+04 AND OCCURS AT NODE        383 INSTANCE BLOCK-1                                                                         
          TIME INCREMENT MAY NOW INCREASE TO    3.740E-03

 ITERATION SUMMARY FOR THE INCREMENT:   1 TOTAL ITERATIONS, OF WHICH
   0 ARE SEVERE DISCONTINUITY ITERATIONS AND  1 ARE EQUILIBRIUM ITERATIONS.

 TIME INCREMENT COMPLETED  2.992E-03,  FRACTION OF STEP COMPLETED  0.222    
 STEP TIME COMPLETED       0.222    ,  TOTAL TIME COMPLETED         1.22    


  INCREMENT     7 STARTS. ATTEMPT NUMBER  1, TIME INCREMENT  3.740E-03

  NUMBER OF EQUATIONS =     3802     NUMBER OF FLOATING PT. OPERATIONS =  2.02E+07

     CHECK POINT   START OF SOLVER    

     CHECK POINT  END OF SOLVER       

       ELAPSED USER TIME (SEC)      =   0.0000    
       ELAPSED SYSTEM TIME (SEC)    =   0.0000    
       ELAPSED TOTAL CPU TIME (SEC) =   0.0000    
       ELAPSED WALLCLOCK TIME (SEC) =          0

               CONVERGENCE CHECKS FOR EQUILIBRIUM ITERATION     1


 AVERAGE FORCE                      7.019E+05   TIME AVG. FORCE       6.313E+05
 LARGEST RESIDUAL FORCE            -0.265       AT NODE         11   DOF  2
   INSTANCE: BLOCK-1                                                                         
 LARGEST INCREMENT OF DISP.        -3.830E-04   AT NODE          7   DOF  2
   INSTANCE: BLOCK-1                                                                         
 LARGEST CORRECTION TO DISP.       -2.777E-05   AT NODE         72   DOF  2
   INSTANCE: BLOCK-1                                                                         
 ESTIMATE OF DISP.    CORRECTION    1.762E-12
 FORCE     EQUILIB. ACCEPTED BASED ON SMALL RESIDUAL AND ESTIMATED CORRECTION

  MAXIMUM HALF-INCREMENT FORCE RESIDUAL IS   2.873E+05 AND OCCURS AT NODE        639 INSTANCE BLOCK-1                                                                         
          TIME INCREMENT MAY NOW INCREASE TO    4.675E-03

 ITERATION SUMMARY FOR THE INCREMENT:   1 TOTAL ITERATIONS, OF WHICH
   0 ARE SEVERE DISCONTINUITY ITERATIONS AND  1 ARE EQUILIBRIUM ITERATIONS.

 TIME INCREMENT COMPLETED  3.740E-03,  FRACTION OF STEP COMPLETED  0.226    
 STEP TIME COMPLETED       0.226    ,  TOTAL TIME COMPLETED         1.23    


  INCREMENT     8 STARTS. ATTEMPT NUMBER  1, TIME INCREMENT  4.675E-03

  NUMBER OF EQUATIONS =     3802     NUMBER OF FLOATING PT. OPERATIONS =  2.02E+07

     CHECK POINT   START OF SOLVER    

     CHECK POINT  END OF SOLVER       

       ELAPSED USER TIME (SEC)      =  0.10000    
       ELAPSED SYSTEM TIME (SEC)    =   0.0000    
       ELAPSED TOTAL CPU TIME (SEC) =  0.10000    
       ELAPSED WALLCLOCK TIME (SEC) =          0

               CONVERGENCE CHECKS FOR EQUILIBRIUM ITERATION     1


 AVERAGE FORCE                      7.105E+05   TIME AVG. FORCE       6.412E+05
 LARGEST RESIDUAL FORCE              1.16       AT NODE        662   DOF  1
   INSTANCE: BLOCK-1                                                                         
 LARGEST INCREMENT OF DISP.        -4.952E-04   AT NODE          7   DOF  2
   INSTANCE: BLOCK-1                                                                         
 LARGEST CORRECTION TO DISP.       -3.417E-05   AT NODE        467   DOF  2
   INSTANCE: BLOCK-1                                                                         
 ESTIMATE OF DISP.    CORRECTION   -9.877E-12
 FORCE     EQUILIB. ACCEPTED BASED ON SMALL RESIDUAL AND ESTIMATED CORRECTION

  MAXIMUM HALF-INCREMENT FORCE RESIDUAL IS   3.620E+05 AND OCCURS AT NODE        635 INSTANCE BLOCK-1                                                                         
          TIME INCREMENT MAY NOW INCREASE TO    5.844E-03

 ITERATION SUMMARY FOR THE INCREMENT:   1 TOTAL ITERATIONS, OF WHICH
   0 ARE SEVERE DISCONTINUITY ITERATIONS AND  1 ARE EQUILIBRIUM ITERATIONS.

 TIME INCREMENT COMPLETED  4.675E-03,  FRACTION OF STEP COMPLETED  0.231    
 STEP TIME COMPLETED       0.231    ,  TOTAL TIME COMPLETED         1.23    


  INCREMENT     9 STARTS. ATTEMPT NUMBER  1, TIME INCREMENT  5.844E-03

  NUMBER OF EQUATIONS =     3802     NUMBER OF FLOATING PT. OPERATIONS =  2.02E+07

     CHECK POINT   START OF SOLVER    

     CHECK POINT  END OF SOLVER       

       ELAPSED USER TIME (SEC)      =   0.0000    
       ELAPSED SYSTEM TIME (SEC)    =   0.0000    
       ELAPSED TOTAL CPU TIME (SEC) =   0.0000    
       ELAPSED WALLCLOCK TIME (SEC) =          0

               CONVERGENCE CHECKS FOR EQUILIBRIUM ITERATION     1


 AVERAGE FORCE                      7.229E+05   TIME AVG. FORCE       6.503E+05
 LARGEST RESIDUAL FORCE             -223.       AT NODE        503   DOF  2
   INSTANCE: BLOCK-1                                                                         
 LARGEST INCREMENT OF DISP.        -6.433E-04   AT NODE          7   DOF  2
   INSTANCE: BLOCK-1                                                                         
 LARGEST CORRECTION TO DISP.       -5.897E-05   AT NODE        639   DOF  2
   INSTANCE: BLOCK-1                                                                         
 ESTIMATE OF DISP.    CORRECTION   -2.082E-09
 FORCE     EQUILIB. ACCEPTED BASED ON SMALL RESIDUAL AND ESTIMATED CORRECTION

  MAXIMUM HALF-INCREMENT FORCE RESIDUAL IS   4.527E+05 AND OCCURS AT NODE       1641 INSTANCE BLOCK-1                                                                         
          TIME INCREMENT MAY NOW INCREASE TO    7.305E-03

 ITERATION SUMMARY FOR THE INCREMENT:   1 TOTAL ITERATIONS, OF WHICH
   0 ARE SEVERE DISCONTINUITY ITERATIONS AND  1 ARE EQUILIBRIUM ITERATIONS.

 TIME INCREMENT COMPLETED  5.844E-03,  FRACTION OF STEP COMPLETED  0.237    
 STEP TIME COMPLETED       0.237    ,  TOTAL TIME COMPLETED         1.24    


  INCREMENT    10 STARTS. ATTEMPT NUMBER  1, TIME INCREMENT  7.305E-03

  NUMBER OF EQUATIONS =     3802     NUMBER OF FLOATING PT. OPERATIONS =  2.02E+07

     CHECK POINT   START OF SOLVER    

     CHECK POINT  END OF SOLVER       

       ELAPSED USER TIME (SEC)      =   0.0000    
       ELAPSED SYSTEM TIME (SEC)    =   0.0000    
       ELAPSED TOTAL CPU TIME (SEC) =   0.0000    
       ELAPSED WALLCLOCK TIME (SEC) =          0

               CONVERGENCE CHECKS FOR EQUILIBRIUM ITERATION     1


 AVERAGE FORCE                      7.433E+05   TIME AVG. FORCE       6.596E+05
 LARGEST RESIDUAL FORCE             2.192E+03   AT NODE          8   DOF  1
   INSTANCE: BLOCK-1                                                                         
 LARGEST INCREMENT OF DISP.        -8.379E-04   AT NODE          7   DOF  2
   INSTANCE: BLOCK-1                                                                         
 LARGEST CORRECTION TO DISP.        1.018E-04   AT NODE         71   DOF  2
   INSTANCE: BLOCK-1                                                                         
 ESTIMATE OF DISP.    CORRECTION   -2.954E-08
 FORCE     EQUILIB. ACCEPTED BASED ON SMALL RESIDUAL AND ESTIMATED CORRECTION

  MAXIMUM HALF-INCREMENT FORCE RESIDUAL IS  -8.240E+05 AND OCCURS AT NODE        627 INSTANCE BLOCK-1                                                                         
          TIME INCREMENT MAY NOW INCREASE TO    9.132E-03

 ITERATION SUMMARY FOR THE INCREMENT:   1 TOTAL ITERATIONS, OF WHICH
   0 ARE SEVERE DISCONTINUITY ITERATIONS AND  1 ARE EQUILIBRIUM ITERATIONS.

 TIME INCREMENT COMPLETED  7.305E-03,  FRACTION OF STEP COMPLETED  0.244    
 STEP TIME COMPLETED       0.244    ,  TOTAL TIME COMPLETED         1.24    


  INCREMENT    11 STARTS. ATTEMPT NUMBER  1, TIME INCREMENT  9.132E-03

  NUMBER OF EQUATIONS =     3802     NUMBER OF FLOATING PT. OPERATIONS =  2.02E+07

     CHECK POINT   START OF SOLVER    

     CHECK POINT  END OF SOLVER       

       ELAPSED USER TIME (SEC)      =  0.10000    
       ELAPSED SYSTEM TIME (SEC)    =   0.0000    
       ELAPSED TOTAL CPU TIME (SEC) =  0.10000    
       ELAPSED WALLCLOCK TIME (SEC) =          0

               CONVERGENCE CHECKS FOR EQUILIBRIUM ITERATION     1


 AVERAGE FORCE                      7.600E+05   TIME AVG. FORCE       6.687E+05
 LARGEST RESIDUAL FORCE              81.9       AT NODE        502   DOF  1
   INSTANCE: BLOCK-1                                                                         
 LARGEST INCREMENT OF DISP.        -1.088E-03   AT NODE          7   DOF  2
   INSTANCE: BLOCK-1                                                                         
 LARGEST CORRECTION TO DISP.       -1.363E-04   AT NODE        384   DOF  2
   INSTANCE: BLOCK-1                                                                         
 ESTIMATE OF DISP.    CORRECTION   -1.283E-09
 FORCE     EQUILIB. ACCEPTED BASED ON SMALL RESIDUAL AND ESTIMATED CORRECTION

  MAXIMUM HALF-INCREMENT FORCE RESIDUAL IS  -9.964E+05 AND OCCURS AT NODE       1641 INSTANCE BLOCK-1                                                                         
          TIME INCREMENT MAY NOW INCREASE TO    1.141E-02

 ITERATION SUMMARY FOR THE INCREMENT:   1 TOTAL ITERATIONS, OF WHICH
   0 ARE SEVERE DISCONTINUITY ITERATIONS AND  1 ARE EQUILIBRIUM ITERATIONS.

 TIME INCREMENT COMPLETED  9.132E-03,  FRACTION OF STEP COMPLETED  0.253    
 STEP TIME COMPLETED       0.253    ,  TOTAL TIME COMPLETED         1.25    


  INCREMENT    12 STARTS. ATTEMPT NUMBER  1, TIME INCREMENT  1.141E-02

  NUMBER OF EQUATIONS =     3802     NUMBER OF FLOATING PT. OPERATIONS =  2.02E+07

     CHECK POINT   START OF SOLVER    

     CHECK POINT  END OF SOLVER       

       ELAPSED USER TIME (SEC)      =   0.0000    
       ELAPSED SYSTEM TIME (SEC)    =   0.0000    
       ELAPSED TOTAL CPU TIME (SEC) =   0.0000    
       ELAPSED WALLCLOCK TIME (SEC) =          0

               CONVERGENCE CHECKS FOR EQUILIBRIUM ITERATION     1


 AVERAGE FORCE                      7.832E+05   TIME AVG. FORCE       6.783E+05
 LARGEST RESIDUAL FORCE             -293.       AT NODE        493   DOF  1
   INSTANCE: BLOCK-1                                                                         
 LARGEST INCREMENT OF DISP.        -1.401E-03   AT NODE          6   DOF  2
   INSTANCE: BLOCK-1                                                                         
 LARGEST CORRECTION TO DISP.       -2.051E-04   AT NODE         71   DOF  2
   INSTANCE: BLOCK-1                                                                         
 ESTIMATE OF DISP.    CORRECTION    5.382E-09
 FORCE     EQUILIB. ACCEPTED BASED ON SMALL RESIDUAL AND ESTIMATED CORRECTION

  MAXIMUM HALF-INCREMENT FORCE RESIDUAL IS   1.421E+06 AND OCCURS AT NODE        635 INSTANCE BLOCK-1                                                                         
          TIME INCREMENT MAY NOW INCREASE TO    1.427E-02

 ITERATION SUMMARY FOR THE INCREMENT:   1 TOTAL ITERATIONS, OF WHICH
   0 ARE SEVERE DISCONTINUITY ITERATIONS AND  1 ARE EQUILIBRIUM ITERATIONS.

 TIME INCREMENT COMPLETED  1.141E-02,  FRACTION OF STEP COMPLETED  0.265    
 STEP TIME COMPLETED       0.265    ,  TOTAL TIME COMPLETED         1.26    


  INCREMENT    13 STARTS. ATTEMPT NUMBER  1, TIME INCREMENT  1.427E-02

 ***WARNING: THE PLASTICITY/CREEP/CONNECTOR FRICTION ALGORITHM DID NOT CONVERGE 
             AT 1 POINTS
 

 ***NOTE: MATERIAL CALCULATIONS FAILED TO CONVERGE OR WERE NOT ATTEMPTED AT ONE 
          OR MORE POINTS. CONVERGENCE IS JUDGED UNLIKELY.

 ***WARNING: CONVERGENCE JUDGED UNLIKELY.  INCREMENT WILL BE ATTEMPTED AGAIN 
             WITH A TIME INCREMENT OF 3.56708E-03


  INCREMENT    13 STARTS. ATTEMPT NUMBER  2, TIME INCREMENT  3.567E-03

  NUMBER OF EQUATIONS =     3802     NUMBER OF FLOATING PT. OPERATIONS =  2.02E+07

     CHECK POINT   START OF SOLVER    

     CHECK POINT  END OF SOLVER       

       ELAPSED USER TIME (SEC)      =   0.0000    
       ELAPSED SYSTEM TIME (SEC)    =   0.0000    
       ELAPSED TOTAL CPU TIME (SEC) =   0.0000    
       ELAPSED WALLCLOCK TIME (SEC) =          0

               CONVERGENCE CHECKS FOR EQUILIBRIUM ITERATION     1


 AVERAGE FORCE                      7.916E+05   TIME AVG. FORCE       6.870E+05
 LARGEST RESIDUAL FORCE             -21.4       AT NODE          6   DOF  2
   INSTANCE: BLOCK-1                                                                         
 LARGEST INCREMENT OF DISP.        -4.493E-04   AT NODE          6   DOF  2
   INSTANCE: BLOCK-1                                                                         
 LARGEST CORRECTION TO DISP.       -1.664E-05   AT NODE        968   DOF  2
   INSTANCE: BLOCK-1                                                                         
 ESTIMATE OF DISP.    CORRECTION   -9.318E-11
 FORCE     EQUILIB. ACCEPTED BASED ON SMALL RESIDUAL AND ESTIMATED CORRECTION

  MAXIMUM HALF-INCREMENT FORCE RESIDUAL IS   1.707E+05 AND OCCURS AT NODE       1641 INSTANCE BLOCK-1                                                                         
          TIME INCREMENT MAY NOW INCREASE TO    4.459E-03

 ITERATION SUMMARY FOR THE INCREMENT:   1 TOTAL ITERATIONS, OF WHICH
   0 ARE SEVERE DISCONTINUITY ITERATIONS AND  1 ARE EQUILIBRIUM ITERATIONS.

 TIME INCREMENT COMPLETED  3.567E-03,  FRACTION OF STEP COMPLETED  0.268    
 STEP TIME COMPLETED       0.268    ,  TOTAL TIME COMPLETED         1.27    


  INCREMENT    14 STARTS. ATTEMPT NUMBER  1, TIME INCREMENT  4.459E-03

  NUMBER OF EQUATIONS =     3802     NUMBER OF FLOATING PT. OPERATIONS =  2.02E+07

     CHECK POINT   START OF SOLVER    

     CHECK POINT  END OF SOLVER       

       ELAPSED USER TIME (SEC)      =  0.10000    
       ELAPSED SYSTEM TIME (SEC)    =   0.0000    
       ELAPSED TOTAL CPU TIME (SEC) =  0.10000    
       ELAPSED WALLCLOCK TIME (SEC) =          0

               CONVERGENCE CHECKS FOR EQUILIBRIUM ITERATION     1


 AVERAGE FORCE                      8.035E+05   TIME AVG. FORCE       6.953E+05
 LARGEST RESIDUAL FORCE             -5.42       AT NODE        405   DOF  2
   INSTANCE: BLOCK-1                                                                         
 LARGEST INCREMENT OF DISP.        -5.634E-04   AT NODE          6   DOF  2
   INSTANCE: BLOCK-1                                                                         
 LARGEST CORRECTION TO DISP.        2.520E-05   AT NODE        457   DOF  2
   INSTANCE: BLOCK-1                                                                         
 ESTIMATE OF DISP.    CORRECTION    3.724E-11
 FORCE     EQUILIB. ACCEPTED BASED ON SMALL RESIDUAL AND ESTIMATED CORRECTION

  MAXIMUM HALF-INCREMENT FORCE RESIDUAL IS  -3.094E+05 AND OCCURS AT NODE        563 INSTANCE BLOCK-1                                                                         
          TIME INCREMENT MAY NOW INCREASE TO    5.574E-03

 ITERATION SUMMARY FOR THE INCREMENT:   1 TOTAL ITERATIONS, OF WHICH
   0 ARE SEVERE DISCONTINUITY ITERATIONS AND  1 ARE EQUILIBRIUM ITERATIONS.

 TIME INCREMENT COMPLETED  4.459E-03,  FRACTION OF STEP COMPLETED  0.273    
 STEP TIME COMPLETED       0.273    ,  TOTAL TIME COMPLETED         1.27    


  INCREMENT    15 STARTS. ATTEMPT NUMBER  1, TIME INCREMENT  5.574E-03

  NUMBER OF EQUATIONS =     3802     NUMBER OF FLOATING PT. OPERATIONS =  2.02E+07

     CHECK POINT   START OF SOLVER    

     CHECK POINT  END OF SOLVER       

       ELAPSED USER TIME (SEC)      =  0.10000    
       ELAPSED SYSTEM TIME (SEC)    =   0.0000    
       ELAPSED TOTAL CPU TIME (SEC) =  0.10000    
       ELAPSED WALLCLOCK TIME (SEC) =          0

               CONVERGENCE CHECKS FOR EQUILIBRIUM ITERATION     1


 AVERAGE FORCE                      8.158E+05   TIME AVG. FORCE       7.033E+05
 LARGEST RESIDUAL FORCE             -18.3       AT NODE        406   DOF  2
   INSTANCE: BLOCK-1                                                                         
 LARGEST INCREMENT OF DISP.        -6.988E-04   AT NODE          6   DOF  2
   INSTANCE: BLOCK-1                                                                         
 LARGEST CORRECTION TO DISP.       -3.966E-05   AT NODE       1641   DOF  2
   INSTANCE: BLOCK-1                                                                         
 ESTIMATE OF DISP.    CORRECTION   -1.755E-10
 FORCE     EQUILIB. ACCEPTED BASED ON SMALL RESIDUAL AND ESTIMATED CORRECTION

  MAXIMUM HALF-INCREMENT FORCE RESIDUAL IS  -3.714E+05 AND OCCURS AT NODE        635 INSTANCE BLOCK-1                                                                         
          TIME INCREMENT MAY NOW INCREASE TO    6.967E-03

 ITERATION SUMMARY FOR THE INCREMENT:   1 TOTAL ITERATIONS, OF WHICH
   0 ARE SEVERE DISCONTINUITY ITERATIONS AND  1 ARE EQUILIBRIUM ITERATIONS.

 TIME INCREMENT COMPLETED  5.574E-03,  FRACTION OF STEP COMPLETED  0.278    
 STEP TIME COMPLETED       0.278    ,  TOTAL TIME COMPLETED         1.28    


  INCREMENT    16 STARTS. ATTEMPT NUMBER  1, TIME INCREMENT  6.967E-03

  NUMBER OF EQUATIONS =     3802     NUMBER OF FLOATING PT. OPERATIONS =  2.02E+07

     CHECK POINT   START OF SOLVER    

     CHECK POINT  END OF SOLVER       

       ELAPSED USER TIME (SEC)      =   0.0000    
       ELAPSED SYSTEM TIME (SEC)    =   0.0000    
       ELAPSED TOTAL CPU TIME (SEC) =   0.0000    
       ELAPSED WALLCLOCK TIME (SEC) =          0

               CONVERGENCE CHECKS FOR EQUILIBRIUM ITERATION     1


 AVERAGE FORCE                      8.309E+05   TIME AVG. FORCE       7.113E+05
 LARGEST RESIDUAL FORCE             4.589E+04   AT NODE        319   DOF  2
   INSTANCE: BLOCK-1                                                                         
 LARGEST INCREMENT OF DISP.        -8.479E-04   AT NODE          6   DOF  2
   INSTANCE: BLOCK-1                                                                         
 LARGEST CORRECTION TO DISP.        7.257E-05   AT NODE        563   DOF  2
   INSTANCE: BLOCK-1                                                                         
          FORCE     EQUILIBRIUM NOT ACHIEVED WITHIN TOLERANCE.

  NUMBER OF EQUATIONS =     3802     NUMBER OF FLOATING PT. OPERATIONS =  2.02E+07

     CHECK POINT   START OF SOLVER    

     CHECK POINT  END OF SOLVER       

       ELAPSED USER TIME (SEC)      =   0.0000    
       ELAPSED SYSTEM TIME (SEC)    =   0.0000    
       ELAPSED TOTAL CPU TIME (SEC) =   0.0000    
       ELAPSED WALLCLOCK TIME (SEC) =          0

               CONVERGENCE CHECKS FOR EQUILIBRIUM ITERATION     2


 AVERAGE FORCE                      8.309E+05   TIME AVG. FORCE       7.113E+05
 LARGEST RESIDUAL FORCE             -3.06       AT NODE       1008   DOF  2
   INSTANCE: BLOCK-1                                                                         
 LARGEST INCREMENT OF DISP.        -8.479E-04   AT NODE          6   DOF  2
   INSTANCE: BLOCK-1                                                                         
 LARGEST CORRECTION TO DISP.        9.929E-07   AT NODE        319   DOF  2
   INSTANCE: BLOCK-1                                                                         
          THE FORCE     EQUILIBRIUM EQUATIONS HAVE CONVERGED

  MAXIMUM HALF-INCREMENT FORCE RESIDUAL IS   6.790E+05 AND OCCURS AT NODE        639 INSTANCE BLOCK-1                                                                         
          TIME INCREMENT MAY NOW INCREASE TO    8.709E-03

 ITERATION SUMMARY FOR THE INCREMENT:   2 TOTAL ITERATIONS, OF WHICH
   0 ARE SEVERE DISCONTINUITY ITERATIONS AND  2 ARE EQUILIBRIUM ITERATIONS.

 TIME INCREMENT COMPLETED  6.967E-03,  FRACTION OF STEP COMPLETED  0.285    
 STEP TIME COMPLETED       0.285    ,  TOTAL TIME COMPLETED         1.29    


  INCREMENT    17 STARTS. ATTEMPT NUMBER  1, TIME INCREMENT  8.709E-03

  NUMBER OF EQUATIONS =     3802     NUMBER OF FLOATING PT. OPERATIONS =  2.02E+07

     CHECK POINT   START OF SOLVER    

     CHECK POINT  END OF SOLVER       

       ELAPSED USER TIME (SEC)      =  0.10000    
       ELAPSED SYSTEM TIME (SEC)    =   0.0000    
       ELAPSED TOTAL CPU TIME (SEC) =  0.10000    
       ELAPSED WALLCLOCK TIME (SEC) =          0

               CONVERGENCE CHECKS FOR EQUILIBRIUM ITERATION     1


 AVERAGE FORCE                      8.516E+05   TIME AVG. FORCE       7.196E+05
 LARGEST RESIDUAL FORCE             2.470E+04   AT NODE        406   DOF  2
   INSTANCE: BLOCK-1                                                                         
 LARGEST INCREMENT OF DISP.        -9.908E-04   AT NODE        405   DOF  2
   INSTANCE: BLOCK-1                                                                         
 LARGEST CORRECTION TO DISP.        1.005E-04   AT NODE       1718   DOF  2
   INSTANCE: BLOCK-1                                                                         
          FORCE     EQUILIBRIUM NOT ACHIEVED WITHIN TOLERANCE.

  NUMBER OF EQUATIONS =     3802     NUMBER OF FLOATING PT. OPERATIONS =  2.02E+07

     CHECK POINT   START OF SOLVER    

     CHECK POINT  END OF SOLVER       

       ELAPSED USER TIME (SEC)      =   0.0000    
       ELAPSED SYSTEM TIME (SEC)    =   0.0000    
       ELAPSED TOTAL CPU TIME (SEC) =   0.0000    
       ELAPSED WALLCLOCK TIME (SEC) =          0

               CONVERGENCE CHECKS FOR EQUILIBRIUM ITERATION     2


 AVERAGE FORCE                      8.516E+05   TIME AVG. FORCE       7.196E+05
 LARGEST RESIDUAL FORCE             -30.0       AT NODE        505   DOF  2
   INSTANCE: BLOCK-1                                                                         
 LARGEST INCREMENT OF DISP.        -9.905E-04   AT NODE        405   DOF  2
   INSTANCE: BLOCK-1                                                                         
 LARGEST CORRECTION TO DISP.        1.534E-06   AT NODE        406   DOF  2
   INSTANCE: BLOCK-1                                                                         
          THE FORCE     EQUILIBRIUM EQUATIONS HAVE CONVERGED

  MAXIMUM HALF-INCREMENT FORCE RESIDUAL IS   7.588E+05 AND OCCURS AT NODE        635 INSTANCE BLOCK-1                                                                         
          TIME INCREMENT MAY NOW INCREASE TO    1.089E-02

 ITERATION SUMMARY FOR THE INCREMENT:   2 TOTAL ITERATIONS, OF WHICH
   0 ARE SEVERE DISCONTINUITY ITERATIONS AND  2 ARE EQUILIBRIUM ITERATIONS.

 TIME INCREMENT COMPLETED  8.709E-03,  FRACTION OF STEP COMPLETED  0.294    
 STEP TIME COMPLETED       0.294    ,  TOTAL TIME COMPLETED         1.29    


  INCREMENT    18 STARTS. ATTEMPT NUMBER  1, TIME INCREMENT  1.089E-02

  NUMBER OF EQUATIONS =     3802     NUMBER OF FLOATING PT. OPERATIONS =  2.02E+07

     CHECK POINT   START OF SOLVER    

     CHECK POINT  END OF SOLVER       

       ELAPSED USER TIME (SEC)      =  0.10000    
       ELAPSED SYSTEM TIME (SEC)    =   0.0000    
       ELAPSED TOTAL CPU TIME (SEC) =  0.10000    
       ELAPSED WALLCLOCK TIME (SEC) =          0

               CONVERGENCE CHECKS FOR EQUILIBRIUM ITERATION     1


 AVERAGE FORCE                      8.813E+05   TIME AVG. FORCE       7.285E+05
 LARGEST RESIDUAL FORCE             1.659E+05   AT NODE        928   DOF  1
   INSTANCE: BLOCK-1                                                                         
 LARGEST INCREMENT OF DISP.        -1.105E-03   AT NODE        405   DOF  2
   INSTANCE: BLOCK-1                                                                         
 LARGEST CORRECTION TO DISP.       -1.691E-04   AT NODE        563   DOF  2
   INSTANCE: BLOCK-1                                                                         
          FORCE     EQUILIBRIUM NOT ACHIEVED WITHIN TOLERANCE.

  NUMBER OF EQUATIONS =     3802     NUMBER OF FLOATING PT. OPERATIONS =  2.02E+07

     CHECK POINT   START OF SOLVER    

     CHECK POINT  END OF SOLVER       

       ELAPSED USER TIME (SEC)      =   0.0000    
       ELAPSED SYSTEM TIME (SEC)    =   0.0000    
       ELAPSED TOTAL CPU TIME (SEC) =   0.0000    
       ELAPSED WALLCLOCK TIME (SEC) =          0

               CONVERGENCE CHECKS FOR EQUILIBRIUM ITERATION     2


 AVERAGE FORCE                      8.813E+05   TIME AVG. FORCE       7.285E+05
 LARGEST RESIDUAL FORCE              88.9       AT NODE        812   DOF  1
   INSTANCE: BLOCK-1                                                                         
 LARGEST INCREMENT OF DISP.        -1.105E-03   AT NODE        405   DOF  2
   INSTANCE: BLOCK-1                                                                         
 LARGEST CORRECTION TO DISP.        5.956E-06   AT NODE        928   DOF  1
   INSTANCE: BLOCK-1                                                                         
          THE FORCE     EQUILIBRIUM EQUATIONS HAVE CONVERGED

  MAXIMUM HALF-INCREMENT FORCE RESIDUAL IS  -1.363E+06 AND OCCURS AT NODE        563 INSTANCE BLOCK-1                                                                         
          TIME INCREMENT MAY NOW INCREASE TO    1.361E-02

 ITERATION SUMMARY FOR THE INCREMENT:   2 TOTAL ITERATIONS, OF WHICH
   0 ARE SEVERE DISCONTINUITY ITERATIONS AND  2 ARE EQUILIBRIUM ITERATIONS.

 TIME INCREMENT COMPLETED  1.089E-02,  FRACTION OF STEP COMPLETED  0.305    
 STEP TIME COMPLETED       0.305    ,  TOTAL TIME COMPLETED         1.30    


  INCREMENT    19 STARTS. ATTEMPT NUMBER  1, TIME INCREMENT  1.361E-02

  NUMBER OF EQUATIONS =     3802     NUMBER OF FLOATING PT. OPERATIONS =  2.02E+07

     CHECK POINT   START OF SOLVER    

     CHECK POINT  END OF SOLVER       

       ELAPSED USER TIME (SEC)      =   0.0000    
       ELAPSED SYSTEM TIME (SEC)    =   0.0000    
       ELAPSED TOTAL CPU TIME (SEC) =   0.0000    
       ELAPSED WALLCLOCK TIME (SEC) =          1

               CONVERGENCE CHECKS FOR EQUILIBRIUM ITERATION     1


 AVERAGE FORCE                      9.194E+05   TIME AVG. FORCE       7.386E+05
 LARGEST RESIDUAL FORCE             1.817E+06   AT NODE       1735   DOF  2
   INSTANCE: BLOCK-1                                                                         
 LARGEST INCREMENT OF DISP.        -1.193E-03   AT NODE       1762   DOF  2
   INSTANCE: BLOCK-1                                                                         
 LARGEST CORRECTION TO DISP.       -3.424E-04   AT NODE       1735   DOF  2
   INSTANCE: BLOCK-1                                                                         
          FORCE     EQUILIBRIUM NOT ACHIEVED WITHIN TOLERANCE.

  NUMBER OF EQUATIONS =     3802     NUMBER OF FLOATING PT. OPERATIONS =  2.02E+07

     CHECK POINT   START OF SOLVER    

     CHECK POINT  END OF SOLVER       

       ELAPSED USER TIME (SEC)      =  0.10000    
       ELAPSED SYSTEM TIME (SEC)    =   0.0000    
       ELAPSED TOTAL CPU TIME (SEC) =  0.10000    
       ELAPSED WALLCLOCK TIME (SEC) =          0

               CONVERGENCE CHECKS FOR EQUILIBRIUM ITERATION     2


 AVERAGE FORCE                      9.194E+05   TIME AVG. FORCE       7.386E+05
 LARGEST RESIDUAL FORCE             -275.       AT NODE        131   DOF  1
   INSTANCE: BLOCK-1                                                                         
 LARGEST INCREMENT OF DISP.        -1.193E-03   AT NODE       1762   DOF  2
   INSTANCE: BLOCK-1                                                                         
 LARGEST CORRECTION TO DISP.        1.220E-04   AT NODE       1735   DOF  2
   INSTANCE: BLOCK-1                                                                         
 ESTIMATE OF DISP.    CORRECTION   -1.846E-08
 FORCE     EQUILIB. ACCEPTED BASED ON SMALL RESIDUAL AND ESTIMATED CORRECTION

  MAXIMUM HALF-INCREMENT FORCE RESIDUAL IS   1.892E+06 AND OCCURS AT NODE        639 INSTANCE BLOCK-1                                                                         
          TIME INCREMENT MAY NOW INCREASE TO    1.701E-02

 ITERATION SUMMARY FOR THE INCREMENT:   2 TOTAL ITERATIONS, OF WHICH
   0 ARE SEVERE DISCONTINUITY ITERATIONS AND  2 ARE EQUILIBRIUM ITERATIONS.

 TIME INCREMENT COMPLETED  1.361E-02,  FRACTION OF STEP COMPLETED  0.318    
 STEP TIME COMPLETED       0.318    ,  TOTAL TIME COMPLETED         1.32    


  INCREMENT    20 STARTS. ATTEMPT NUMBER  1, TIME INCREMENT  1.701E-02

 ***WARNING: THE PLASTICITY/CREEP/CONNECTOR FRICTION ALGORITHM DID NOT CONVERGE 
             AT 1 POINTS
 

 ***NOTE: MATERIAL CALCULATIONS FAILED TO CONVERGE OR WERE NOT ATTEMPTED AT ONE 
          OR MORE POINTS. CONVERGENCE IS JUDGED UNLIKELY.

 ***WARNING: CONVERGENCE JUDGED UNLIKELY.  INCREMENT WILL BE ATTEMPTED AGAIN 
             WITH A TIME INCREMENT OF 4.25229E-03


  INCREMENT    20 STARTS. ATTEMPT NUMBER  2, TIME INCREMENT  4.252E-03

  NUMBER OF EQUATIONS =     3802     NUMBER OF FLOATING PT. OPERATIONS =  2.02E+07

     CHECK POINT   START OF SOLVER    

     CHECK POINT  END OF SOLVER       

       ELAPSED USER TIME (SEC)      =   0.0000    
       ELAPSED SYSTEM TIME (SEC)    =   0.0000    
       ELAPSED TOTAL CPU TIME (SEC) =   0.0000    
       ELAPSED WALLCLOCK TIME (SEC) =          0

               CONVERGENCE CHECKS FOR EQUILIBRIUM ITERATION     1


 AVERAGE FORCE                      9.316E+05   TIME AVG. FORCE       7.482E+05
 LARGEST RESIDUAL FORCE             4.369E+04   AT NODE        897   DOF  2
   INSTANCE: BLOCK-1                                                                         
 LARGEST INCREMENT OF DISP.        -3.876E-04   AT NODE       1844   DOF  2
   INSTANCE: BLOCK-1                                                                         
 LARGEST CORRECTION TO DISP.        2.378E-05   AT NODE       1901   DOF  2
   INSTANCE: BLOCK-1                                                                         
          FORCE     EQUILIBRIUM NOT ACHIEVED WITHIN TOLERANCE.

  NUMBER OF EQUATIONS =     3802     NUMBER OF FLOATING PT. OPERATIONS =  2.02E+07

     CHECK POINT   START OF SOLVER    

     CHECK POINT  END OF SOLVER       

       ELAPSED USER TIME (SEC)      =   0.0000    
       ELAPSED SYSTEM TIME (SEC)    =   0.0000    
       ELAPSED TOTAL CPU TIME (SEC) =   0.0000    
       ELAPSED WALLCLOCK TIME (SEC) =          0

               CONVERGENCE CHECKS FOR EQUILIBRIUM ITERATION     2


 AVERAGE FORCE                      9.318E+05   TIME AVG. FORCE       7.482E+05
 LARGEST RESIDUAL FORCE             -1.60       AT NODE        130   DOF  1
   INSTANCE: BLOCK-1                                                                         
 LARGEST INCREMENT OF DISP.        -3.876E-04   AT NODE       1844   DOF  2
   INSTANCE: BLOCK-1                                                                         
 LARGEST CORRECTION TO DISP.       -2.856E-07   AT NODE        130   DOF  1
   INSTANCE: BLOCK-1                                                                         
          THE FORCE     EQUILIBRIUM EQUATIONS HAVE CONVERGED

  MAXIMUM HALF-INCREMENT FORCE RESIDUAL IS   2.261E+05 AND OCCURS AT NODE        628 INSTANCE BLOCK-1                                                                         
          TIME INCREMENT MAY NOW INCREASE TO    5.315E-03

 ITERATION SUMMARY FOR THE INCREMENT:   2 TOTAL ITERATIONS, OF WHICH
   0 ARE SEVERE DISCONTINUITY ITERATIONS AND  2 ARE EQUILIBRIUM ITERATIONS.

 TIME INCREMENT COMPLETED  4.252E-03,  FRACTION OF STEP COMPLETED  0.323    
 STEP TIME COMPLETED       0.323    ,  TOTAL TIME COMPLETED         1.32    


  INCREMENT    21 STARTS. ATTEMPT NUMBER  1, TIME INCREMENT  5.315E-03

  NUMBER OF EQUATIONS =     3802     NUMBER OF FLOATING PT. OPERATIONS =  2.02E+07

     CHECK POINT   START OF SOLVER    

     CHECK POINT  END OF SOLVER       

       ELAPSED USER TIME (SEC)      =   0.0000    
       ELAPSED SYSTEM TIME (SEC)    =   0.0000    
       ELAPSED TOTAL CPU TIME (SEC) =   0.0000    
       ELAPSED WALLCLOCK TIME (SEC) =          0

               CONVERGENCE CHECKS FOR EQUILIBRIUM ITERATION     1


 AVERAGE FORCE                      9.490E+05   TIME AVG. FORCE       7.578E+05
 LARGEST RESIDUAL FORCE             3.314E+04   AT NODE        840   DOF  2
   INSTANCE: BLOCK-1                                                                         
 LARGEST INCREMENT OF DISP.        -4.795E-04   AT NODE       1844   DOF  2
   INSTANCE: BLOCK-1                                                                         
 LARGEST CORRECTION TO DISP.        3.578E-05   AT NODE       1641   DOF  2
   INSTANCE: BLOCK-1                                                                         
          FORCE     EQUILIBRIUM NOT ACHIEVED WITHIN TOLERANCE.

  NUMBER OF EQUATIONS =     3802     NUMBER OF FLOATING PT. OPERATIONS =  2.02E+07

     CHECK POINT   START OF SOLVER    

     CHECK POINT  END OF SOLVER       

       ELAPSED USER TIME (SEC)      =   0.0000    
       ELAPSED SYSTEM TIME (SEC)    =   0.0000    
       ELAPSED TOTAL CPU TIME (SEC) =   0.0000    
       ELAPSED WALLCLOCK TIME (SEC) =          0

               CONVERGENCE CHECKS FOR EQUILIBRIUM ITERATION     2


 AVERAGE FORCE                      9.490E+05   TIME AVG. FORCE       7.578E+05
 LARGEST RESIDUAL FORCE              1.12       AT NODE        840   DOF  2
   INSTANCE: BLOCK-1                                                                         
 LARGEST INCREMENT OF DISP.        -4.795E-04   AT NODE       1844   DOF  2
   INSTANCE: BLOCK-1                                                                         
 LARGEST CORRECTION TO DISP.        5.689E-07   AT NODE        840   DOF  2
   INSTANCE: BLOCK-1                                                                         
          THE FORCE     EQUILIBRIUM EQUATIONS HAVE CONVERGED

  MAXIMUM HALF-INCREMENT FORCE RESIDUAL IS   3.011E+05 AND OCCURS AT NODE        383 INSTANCE BLOCK-1                                                                         
          TIME INCREMENT MAY NOW INCREASE TO    6.644E-03

 ITERATION SUMMARY FOR THE INCREMENT:   2 TOTAL ITERATIONS, OF WHICH
   0 ARE SEVERE DISCONTINUITY ITERATIONS AND  2 ARE EQUILIBRIUM ITERATIONS.

 TIME INCREMENT COMPLETED  5.315E-03,  FRACTION OF STEP COMPLETED  0.328    
 STEP TIME COMPLETED       0.328    ,  TOTAL TIME COMPLETED         1.33    


  INCREMENT    22 STARTS. ATTEMPT NUMBER  1, TIME INCREMENT  6.644E-03

  NUMBER OF EQUATIONS =     3802     NUMBER OF FLOATING PT. OPERATIONS =  2.02E+07

     CHECK POINT   START OF SOLVER    

     CHECK POINT  END OF SOLVER       

       ELAPSED USER TIME (SEC)      =  0.10000    
       ELAPSED SYSTEM TIME (SEC)    =  0.10000    
       ELAPSED TOTAL CPU TIME (SEC) =  0.20000    
       ELAPSED WALLCLOCK TIME (SEC) =          0

               CONVERGENCE CHECKS FOR EQUILIBRIUM ITERATION     1


 AVERAGE FORCE                      9.719E+05   TIME AVG. FORCE       7.675E+05
 LARGEST RESIDUAL FORCE            -2.782E+04   AT NODE        502   DOF  1
   INSTANCE: BLOCK-1                                                                         
 LARGEST INCREMENT OF DISP.        -5.830E-04   AT NODE       1427   DOF  2
   INSTANCE: BLOCK-1                                                                         
 LARGEST CORRECTION TO DISP.       -6.641E-05   AT NODE       1901   DOF  2
   INSTANCE: BLOCK-1                                                                         
          FORCE     EQUILIBRIUM NOT ACHIEVED WITHIN TOLERANCE.

  NUMBER OF EQUATIONS =     3802     NUMBER OF FLOATING PT. OPERATIONS =  2.02E+07

     CHECK POINT   START OF SOLVER    

     CHECK POINT  END OF SOLVER       

       ELAPSED USER TIME (SEC)      =  0.10000    
       ELAPSED SYSTEM TIME (SEC)    =   0.0000    
       ELAPSED TOTAL CPU TIME (SEC) =  0.10000    
       ELAPSED WALLCLOCK TIME (SEC) =          0

               CONVERGENCE CHECKS FOR EQUILIBRIUM ITERATION     2


 AVERAGE FORCE                      9.719E+05   TIME AVG. FORCE       7.675E+05
 LARGEST RESIDUAL FORCE             -1.28       AT NODE        405   DOF  1
   INSTANCE: BLOCK-1                                                                         
 LARGEST INCREMENT OF DISP.        -5.830E-04   AT NODE       1427   DOF  2
   INSTANCE: BLOCK-1                                                                         
 LARGEST CORRECTION TO DISP.       -7.936E-07   AT NODE        406   DOF  2
   INSTANCE: BLOCK-1                                                                         
          THE FORCE     EQUILIBRIUM EQUATIONS HAVE CONVERGED

  MAXIMUM HALF-INCREMENT FORCE RESIDUAL IS  -5.396E+05 AND OCCURS AT NODE        639 INSTANCE BLOCK-1                                                                         
          TIME INCREMENT MAY NOW INCREASE TO    8.305E-03

 ITERATION SUMMARY FOR THE INCREMENT:   2 TOTAL ITERATIONS, OF WHICH
   0 ARE SEVERE DISCONTINUITY ITERATIONS AND  2 ARE EQUILIBRIUM ITERATIONS.

 TIME INCREMENT COMPLETED  6.644E-03,  FRACTION OF STEP COMPLETED  0.335    
 STEP TIME COMPLETED       0.335    ,  TOTAL TIME COMPLETED         1.33    


  INCREMENT    23 STARTS. ATTEMPT NUMBER  1, TIME INCREMENT  8.305E-03

  NUMBER OF EQUATIONS =     3802     NUMBER OF FLOATING PT. OPERATIONS =  2.02E+07

     CHECK POINT   START OF SOLVER    

     CHECK POINT  END OF SOLVER       

       ELAPSED USER TIME (SEC)      =  0.10000    
       ELAPSED SYSTEM TIME (SEC)    =   0.0000    
       ELAPSED TOTAL CPU TIME (SEC) =  0.10000    
       ELAPSED WALLCLOCK TIME (SEC) =          0

               CONVERGENCE CHECKS FOR EQUILIBRIUM ITERATION     1


 AVERAGE FORCE                      1.003E+06   TIME AVG. FORCE       7.778E+05
 LARGEST RESIDUAL FORCE            -1.052E+03   AT NODE          3   DOF  2
   INSTANCE: BLOCK-1                                                                         
 LARGEST INCREMENT OF DISP.        -7.286E-04   AT NODE       1013   DOF  2
   INSTANCE: BLOCK-1                                                                         
 LARGEST CORRECTION TO DISP.       -9.506E-05   AT NODE        383   DOF  2
   INSTANCE: BLOCK-1                                                                         
 ESTIMATE OF DISP.    CORRECTION   -1.544E-08
 FORCE     EQUILIB. ACCEPTED BASED ON SMALL RESIDUAL AND ESTIMATED CORRECTION

  MAXIMUM HALF-INCREMENT FORCE RESIDUAL IS  -6.678E+05 AND OCCURS AT NODE        383 INSTANCE BLOCK-1                                                                         
          TIME INCREMENT MAY NOW INCREASE TO    1.038E-02

 ITERATION SUMMARY FOR THE INCREMENT:   1 TOTAL ITERATIONS, OF WHICH
   0 ARE SEVERE DISCONTINUITY ITERATIONS AND  1 ARE EQUILIBRIUM ITERATIONS.

 TIME INCREMENT COMPLETED  8.305E-03,  FRACTION OF STEP COMPLETED  0.343    
 STEP TIME COMPLETED       0.343    ,  TOTAL TIME COMPLETED         1.34    


  INCREMENT    24 STARTS. ATTEMPT NUMBER  1, TIME INCREMENT  1.038E-02

  NUMBER OF EQUATIONS =     3802     NUMBER OF FLOATING PT. OPERATIONS =  2.02E+07

     CHECK POINT   START OF SOLVER    

     CHECK POINT  END OF SOLVER       

       ELAPSED USER TIME (SEC)      =   0.0000    
       ELAPSED SYSTEM TIME (SEC)    =   0.0000    
       ELAPSED TOTAL CPU TIME (SEC) =   0.0000    
       ELAPSED WALLCLOCK TIME (SEC) =          0

               CONVERGENCE CHECKS FOR EQUILIBRIUM ITERATION     1


 AVERAGE FORCE                      1.041E+06   TIME AVG. FORCE       7.887E+05
 LARGEST RESIDUAL FORCE            -2.792E+03   AT NODE       1050   DOF  1
   INSTANCE: BLOCK-1                                                                         
 LARGEST INCREMENT OF DISP.        -9.106E-04   AT NODE       1901   DOF  2
   INSTANCE: BLOCK-1                                                                         
 LARGEST CORRECTION TO DISP.        1.825E-04   AT NODE       1901   DOF  2
   INSTANCE: BLOCK-1                                                                         
 ESTIMATE OF DISP.    CORRECTION   -6.145E-08
 FORCE     EQUILIB. ACCEPTED BASED ON SMALL RESIDUAL AND ESTIMATED CORRECTION

  MAXIMUM HALF-INCREMENT FORCE RESIDUAL IS   1.126E+06 AND OCCURS AT NODE        628 INSTANCE BLOCK-1                                                                         
          TIME INCREMENT MAY NOW INCREASE TO    1.298E-02

 ITERATION SUMMARY FOR THE INCREMENT:   1 TOTAL ITERATIONS, OF WHICH
   0 ARE SEVERE DISCONTINUITY ITERATIONS AND  1 ARE EQUILIBRIUM ITERATIONS.

 TIME INCREMENT COMPLETED  1.038E-02,  FRACTION OF STEP COMPLETED  0.353    
 STEP TIME COMPLETED       0.353    ,  TOTAL TIME COMPLETED         1.35    


  INCREMENT    25 STARTS. ATTEMPT NUMBER  1, TIME INCREMENT  1.298E-02

  NUMBER OF EQUATIONS =     3802     NUMBER OF FLOATING PT. OPERATIONS =  2.02E+07

     CHECK POINT   START OF SOLVER    

     CHECK POINT  END OF SOLVER       

       ELAPSED USER TIME (SEC)      =  0.10000    
       ELAPSED SYSTEM TIME (SEC)    =   0.0000    
       ELAPSED TOTAL CPU TIME (SEC) =  0.10000    
       ELAPSED WALLCLOCK TIME (SEC) =          0

               CONVERGENCE CHECKS FOR EQUILIBRIUM ITERATION     1


 AVERAGE FORCE                      1.089E+06   TIME AVG. FORCE       8.007E+05
 LARGEST RESIDUAL FORCE            -5.238E+06   AT NODE       1641   DOF  2
   INSTANCE: BLOCK-1                                                                         
 LARGEST INCREMENT OF DISP.        -1.140E-03   AT NODE        847   DOF  2
   INSTANCE: BLOCK-1                                                                         
 LARGEST CORRECTION TO DISP.       -3.553E-04   AT NODE        516   DOF  2
   INSTANCE: BLOCK-1                                                                         
          FORCE     EQUILIBRIUM NOT ACHIEVED WITHIN TOLERANCE.

  NUMBER OF EQUATIONS =     3802     NUMBER OF FLOATING PT. OPERATIONS =  2.02E+07

     CHECK POINT   START OF SOLVER    

     CHECK POINT  END OF SOLVER       

       ELAPSED USER TIME (SEC)      =  0.10000    
       ELAPSED SYSTEM TIME (SEC)    =   0.0000    
       ELAPSED TOTAL CPU TIME (SEC) =  0.10000    
       ELAPSED WALLCLOCK TIME (SEC) =          0

               CONVERGENCE CHECKS FOR EQUILIBRIUM ITERATION     2


 AVERAGE FORCE                      1.088E+06   TIME AVG. FORCE       8.007E+05
 LARGEST RESIDUAL FORCE              8.02       AT NODE          1   DOF  2
   INSTANCE: BLOCK-1                                                                         
 LARGEST INCREMENT OF DISP.        -1.140E-03   AT NODE        847   DOF  2
   INSTANCE: BLOCK-1                                                                         
 LARGEST CORRECTION TO DISP.        1.469E-04   AT NODE        516   DOF  2
   INSTANCE: BLOCK-1                                                                         
 ESTIMATE OF DISP.    CORRECTION   -2.249E-10
 FORCE     EQUILIB. ACCEPTED BASED ON SMALL RESIDUAL AND ESTIMATED CORRECTION

  MAXIMUM HALF-INCREMENT FORCE RESIDUAL IS  -1.708E+06 AND OCCURS AT NODE        516 INSTANCE BLOCK-1                                                                         
          TIME INCREMENT MAY NOW INCREASE TO    1.622E-02

 ITERATION SUMMARY FOR THE INCREMENT:   2 TOTAL ITERATIONS, OF WHICH
   0 ARE SEVERE DISCONTINUITY ITERATIONS AND  2 ARE EQUILIBRIUM ITERATIONS.

 TIME INCREMENT COMPLETED  1.298E-02,  FRACTION OF STEP COMPLETED  0.366    
 STEP TIME COMPLETED       0.366    ,  TOTAL TIME COMPLETED         1.37    


  INCREMENT    26 STARTS. ATTEMPT NUMBER  1, TIME INCREMENT  1.622E-02

 ***WARNING: THE PLASTICITY/CREEP/CONNECTOR FRICTION ALGORITHM DID NOT CONVERGE 
             AT 1 POINTS
 

 ***NOTE: MATERIAL CALCULATIONS FAILED TO CONVERGE OR WERE NOT ATTEMPTED AT ONE 
          OR MORE POINTS. CONVERGENCE IS JUDGED UNLIKELY.

 ***WARNING: CONVERGENCE JUDGED UNLIKELY.  INCREMENT WILL BE ATTEMPTED AGAIN 
             WITH A TIME INCREMENT OF 4.05530E-03


  INCREMENT    26 STARTS. ATTEMPT NUMBER  2, TIME INCREMENT  4.055E-03

  NUMBER OF EQUATIONS =     3802     NUMBER OF FLOATING PT. OPERATIONS =  2.02E+07

     CHECK POINT   START OF SOLVER    

     CHECK POINT  END OF SOLVER       

       ELAPSED USER TIME (SEC)      =   0.0000    
       ELAPSED SYSTEM TIME (SEC)    =   0.0000    
       ELAPSED TOTAL CPU TIME (SEC) =   0.0000    
       ELAPSED WALLCLOCK TIME (SEC) =          0

               CONVERGENCE CHECKS FOR EQUILIBRIUM ITERATION     1


 AVERAGE FORCE                      1.105E+06   TIME AVG. FORCE       8.124E+05
 LARGEST RESIDUAL FORCE            -1.063E+04   AT NODE        405   DOF  2
   INSTANCE: BLOCK-1                                                                         
 LARGEST INCREMENT OF DISP.        -3.722E-04   AT NODE          8   DOF  2
   INSTANCE: BLOCK-1                                                                         
 LARGEST CORRECTION TO DISP.       -2.234E-05   AT NODE          5   DOF  2
   INSTANCE: BLOCK-1                                                                         
          FORCE     EQUILIBRIUM NOT ACHIEVED WITHIN TOLERANCE.

  NUMBER OF EQUATIONS =     3802     NUMBER OF FLOATING PT. OPERATIONS =  2.02E+07

     CHECK POINT   START OF SOLVER    

     CHECK POINT  END OF SOLVER       

       ELAPSED USER TIME (SEC)      =   0.0000    
       ELAPSED SYSTEM TIME (SEC)    =   0.0000    
       ELAPSED TOTAL CPU TIME (SEC) =   0.0000    
       ELAPSED WALLCLOCK TIME (SEC) =          0

               CONVERGENCE CHECKS FOR EQUILIBRIUM ITERATION     2


 AVERAGE FORCE                      1.105E+06   TIME AVG. FORCE       8.124E+05
 LARGEST RESIDUAL FORCE            -0.568       AT NODE          6   DOF  2
   INSTANCE: BLOCK-1                                                                         
 LARGEST INCREMENT OF DISP.        -3.722E-04   AT NODE          8   DOF  2
   INSTANCE: BLOCK-1                                                                         
 LARGEST CORRECTION TO DISP.       -1.539E-07   AT NODE        405   DOF  2
   INSTANCE: BLOCK-1                                                                         
          THE FORCE     EQUILIBRIUM EQUATIONS HAVE CONVERGED

  MAXIMUM HALF-INCREMENT FORCE RESIDUAL IS  -1.943E+05 AND OCCURS AT NODE        628 INSTANCE BLOCK-1                                                                         
          TIME INCREMENT MAY NOW INCREASE TO    5.069E-03

 ITERATION SUMMARY FOR THE INCREMENT:   2 TOTAL ITERATIONS, OF WHICH
   0 ARE SEVERE DISCONTINUITY ITERATIONS AND  2 ARE EQUILIBRIUM ITERATIONS.

 TIME INCREMENT COMPLETED  4.055E-03,  FRACTION OF STEP COMPLETED  0.370    
 STEP TIME COMPLETED       0.370    ,  TOTAL TIME COMPLETED         1.37    


  INCREMENT    27 STARTS. ATTEMPT NUMBER  1, TIME INCREMENT  5.069E-03

  NUMBER OF EQUATIONS =     3802     NUMBER OF FLOATING PT. OPERATIONS =  2.02E+07

     CHECK POINT   START OF SOLVER    

     CHECK POINT  END OF SOLVER       

       ELAPSED USER TIME (SEC)      =   0.0000    
       ELAPSED SYSTEM TIME (SEC)    =  0.10000    
       ELAPSED TOTAL CPU TIME (SEC) =  0.10000    
       ELAPSED WALLCLOCK TIME (SEC) =          0

               CONVERGENCE CHECKS FOR EQUILIBRIUM ITERATION     1


 AVERAGE FORCE                      1.125E+06   TIME AVG. FORCE       8.240E+05
 LARGEST RESIDUAL FORCE            -9.416E+03   AT NODE        131   DOF  2
   INSTANCE: BLOCK-1                                                                         
 LARGEST INCREMENT OF DISP.        -4.519E-04   AT NODE        391   DOF  2
   INSTANCE: BLOCK-1                                                                         
 LARGEST CORRECTION TO DISP.       -3.112E-05   AT NODE        383   DOF  2
   INSTANCE: BLOCK-1                                                                         
          FORCE     EQUILIBRIUM NOT ACHIEVED WITHIN TOLERANCE.

  NUMBER OF EQUATIONS =     3802     NUMBER OF FLOATING PT. OPERATIONS =  2.02E+07

     CHECK POINT   START OF SOLVER    

     CHECK POINT  END OF SOLVER       

       ELAPSED USER TIME (SEC)      =   0.0000    
       ELAPSED SYSTEM TIME (SEC)    =   0.0000    
       ELAPSED TOTAL CPU TIME (SEC) =   0.0000    
       ELAPSED WALLCLOCK TIME (SEC) =          0

               CONVERGENCE CHECKS FOR EQUILIBRIUM ITERATION     2


 AVERAGE FORCE                      1.125E+06   TIME AVG. FORCE       8.240E+05
 LARGEST RESIDUAL FORCE             0.627       AT NODE          6   DOF  2
   INSTANCE: BLOCK-1                                                                         
 LARGEST INCREMENT OF DISP.        -4.519E-04   AT NODE        391   DOF  2
   INSTANCE: BLOCK-1                                                                         
 LARGEST CORRECTION TO DISP.        1.544E-07   AT NODE        405   DOF  2
   INSTANCE: BLOCK-1                                                                         
[...]
 LARGEST INCREMENT OF DISP.         2.358E-03   AT NODE        405   DOF  2
   INSTANCE: BLOCK-1                                                                         
 LARGEST CORRECTION TO DISP.        3.842E-06   AT NODE          8   DOF  1
   INSTANCE: BLOCK-1                                                                         
          THE FORCE     EQUILIBRIUM EQUATIONS HAVE CONVERGED

  MAXIMUM HALF-INCREMENT FORCE RESIDUAL IS   9.175E+05 AND OCCURS AT NODE       1011 INSTANCE BLOCK-1                                                                         

 ITERATION SUMMARY FOR THE INCREMENT:   5 TOTAL ITERATIONS, OF WHICH
   0 ARE SEVERE DISCONTINUITY ITERATIONS AND  5 ARE EQUILIBRIUM ITERATIONS.

 TIME INCREMENT COMPLETED  2.621E-02,  FRACTION OF STEP COMPLETED  0.894    
 STEP TIME COMPLETED       0.894    ,  TOTAL TIME COMPLETED         1.89    


  INCREMENT    56 STARTS. ATTEMPT NUMBER  1, TIME INCREMENT  2.621E-02

  NUMBER OF EQUATIONS =     3802     NUMBER OF FLOATING PT. OPERATIONS =  2.02E+07

     CHECK POINT   START OF SOLVER    

     CHECK POINT  END OF SOLVER       

       ELAPSED USER TIME (SEC)      =  0.10000    
       ELAPSED SYSTEM TIME (SEC)    =   0.0000    
       ELAPSED TOTAL CPU TIME (SEC) =  0.10000    
       ELAPSED WALLCLOCK TIME (SEC) =          0
 

 ***WARNING: THE SYSTEM MATRIX HAS 1 NEGATIVE EIGENVALUES.
             EXPLANATIONS ARE SUGGESTED AFTER THE FIRST OCCURRENCE OF THIS MESSAGE.

               CONVERGENCE CHECKS FOR EQUILIBRIUM ITERATION     1


 AVERAGE FORCE                      1.135E+06   TIME AVG. FORCE       1.136E+06
 LARGEST RESIDUAL FORCE            -1.871E+06   AT NODE        505   DOF  2
   INSTANCE: BLOCK-1                                                                         
 LARGEST INCREMENT OF DISP.         2.474E-03   AT NODE        505   DOF  2
   INSTANCE: BLOCK-1                                                                         
 LARGEST CORRECTION TO DISP.       -7.843E-04   AT NODE          8   DOF  2
   INSTANCE: BLOCK-1                                                                         
          FORCE     EQUILIBRIUM NOT ACHIEVED WITHIN TOLERANCE.

  NUMBER OF EQUATIONS =     3802     NUMBER OF FLOATING PT. OPERATIONS =  2.02E+07

     CHECK POINT   START OF SOLVER    

     CHECK POINT  END OF SOLVER       

       ELAPSED USER TIME (SEC)      =  0.10000    
       ELAPSED SYSTEM TIME (SEC)    =   0.0000    
       ELAPSED TOTAL CPU TIME (SEC) =  0.10000    
       ELAPSED WALLCLOCK TIME (SEC) =          0

               CONVERGENCE CHECKS FOR EQUILIBRIUM ITERATION     2


 AVERAGE FORCE                      1.137E+06   TIME AVG. FORCE       1.136E+06
 LARGEST RESIDUAL FORCE            -1.325E+07   AT NODE          8   DOF  2
   INSTANCE: BLOCK-1                                                                         
 LARGEST INCREMENT OF DISP.         3.747E-03   AT NODE          8   DOF  2
   INSTANCE: BLOCK-1                                                                         
 LARGEST CORRECTION TO DISP.        2.373E-03   AT NODE          8   DOF  2
   INSTANCE: BLOCK-1                                                                         
          FORCE     EQUILIBRIUM NOT ACHIEVED WITHIN TOLERANCE.

  NUMBER OF EQUATIONS =     3802     NUMBER OF FLOATING PT. OPERATIONS =  2.02E+07

     CHECK POINT   START OF SOLVER    

     CHECK POINT  END OF SOLVER       

       ELAPSED USER TIME (SEC)      =   0.0000    
       ELAPSED SYSTEM TIME (SEC)    =   0.0000    
       ELAPSED TOTAL CPU TIME (SEC) =   0.0000    
       ELAPSED WALLCLOCK TIME (SEC) =          0

               CONVERGENCE CHECKS FOR EQUILIBRIUM ITERATION     3


 AVERAGE FORCE                      1.134E+06   TIME AVG. FORCE       1.136E+06
 LARGEST RESIDUAL FORCE             1.552E+06   AT NODE        493   DOF  1
   INSTANCE: BLOCK-1                                                                         
 LARGEST INCREMENT OF DISP.         2.421E-03   AT NODE          7   DOF  2
   INSTANCE: BLOCK-1                                                                         
 LARGEST CORRECTION TO DISP.       -1.502E-03   AT NODE          8   DOF  2
   INSTANCE: BLOCK-1                                                                         
          FORCE     EQUILIBRIUM NOT ACHIEVED WITHIN TOLERANCE.

  NUMBER OF EQUATIONS =     3802     NUMBER OF FLOATING PT. OPERATIONS =  2.02E+07

     CHECK POINT   START OF SOLVER    

     CHECK POINT  END OF SOLVER       

       ELAPSED USER TIME (SEC)      =   0.0000    
       ELAPSED SYSTEM TIME (SEC)    =   0.0000    
       ELAPSED TOTAL CPU TIME (SEC) =   0.0000    
       ELAPSED WALLCLOCK TIME (SEC) =          0

               CONVERGENCE CHECKS FOR EQUILIBRIUM ITERATION     4


 AVERAGE FORCE                      1.134E+06   TIME AVG. FORCE       1.136E+06
 LARGEST RESIDUAL FORCE            -4.960E+03   AT NODE        495   DOF  1
   INSTANCE: BLOCK-1                                                                         
 LARGEST INCREMENT OF DISP.         2.426E-03   AT NODE          7   DOF  2
   INSTANCE: BLOCK-1                                                                         
 LARGEST CORRECTION TO DISP.        1.159E-04   AT NODE        493   DOF  1
   INSTANCE: BLOCK-1                                                                         
 ESTIMATE OF DISP.    CORRECTION   -3.706E-07
 FORCE     EQUILIB. ACCEPTED BASED ON SMALL RESIDUAL AND ESTIMATED CORRECTION

  MAXIMUM HALF-INCREMENT FORCE RESIDUAL IS  -6.643E+05 AND OCCURS AT NODE       1098 INSTANCE BLOCK-1                                                                         

 ITERATION SUMMARY FOR THE INCREMENT:   4 TOTAL ITERATIONS, OF WHICH
   0 ARE SEVERE DISCONTINUITY ITERATIONS AND  4 ARE EQUILIBRIUM ITERATIONS.

 TIME INCREMENT COMPLETED  2.621E-02,  FRACTION OF STEP COMPLETED  0.921    
 STEP TIME COMPLETED       0.921    ,  TOTAL TIME COMPLETED         1.92    


  INCREMENT    57 STARTS. ATTEMPT NUMBER  1, TIME INCREMENT  2.621E-02

  NUMBER OF EQUATIONS =     3802     NUMBER OF FLOATING PT. OPERATIONS =  2.02E+07

     CHECK POINT   START OF SOLVER    

     CHECK POINT  END OF SOLVER       

       ELAPSED USER TIME (SEC)      =  0.10000    
       ELAPSED SYSTEM TIME (SEC)    =  0.10000    
       ELAPSED TOTAL CPU TIME (SEC) =  0.20000    
       ELAPSED WALLCLOCK TIME (SEC) =          0

               CONVERGENCE CHECKS FOR EQUILIBRIUM ITERATION     1


 AVERAGE FORCE                      1.025E+06   TIME AVG. FORCE       1.134E+06
 LARGEST RESIDUAL FORCE             6.500E+05   AT NODE        148   DOF  1
   INSTANCE: BLOCK-1                                                                         
 LARGEST INCREMENT OF DISP.         2.202E-03   AT NODE         55   DOF  2
   INSTANCE: BLOCK-1                                                                         
 LARGEST CORRECTION TO DISP.       -3.949E-04   AT NODE        406   DOF  2
   INSTANCE: BLOCK-1                                                                         
          FORCE     EQUILIBRIUM NOT ACHIEVED WITHIN TOLERANCE.

  NUMBER OF EQUATIONS =     3802     NUMBER OF FLOATING PT. OPERATIONS =  2.02E+07

     CHECK POINT   START OF SOLVER    

     CHECK POINT  END OF SOLVER       

       ELAPSED USER TIME (SEC)      =   0.0000    
       ELAPSED SYSTEM TIME (SEC)    =   0.0000    
       ELAPSED TOTAL CPU TIME (SEC) =   0.0000    
       ELAPSED WALLCLOCK TIME (SEC) =          0

               CONVERGENCE CHECKS FOR EQUILIBRIUM ITERATION     2


 AVERAGE FORCE                      1.025E+06   TIME AVG. FORCE       1.134E+06
 LARGEST RESIDUAL FORCE            -1.024E-08   AT NODE       1437   DOF  2
   INSTANCE: BLOCK-1                                                                         
 LARGEST INCREMENT OF DISP.         2.202E-03   AT NODE         55   DOF  2
   INSTANCE: BLOCK-1                                                                         
 LARGEST CORRECTION TO DISP.       -9.667E-05   AT NODE          4   DOF  2
   INSTANCE: BLOCK-1                                                                         
          THE FORCE     EQUILIBRIUM EQUATIONS HAVE CONVERGED

  MAXIMUM HALF-INCREMENT FORCE RESIDUAL IS  -7.343E+05 AND OCCURS AT NODE       1212 INSTANCE BLOCK-1                                                                         
          TIME INCREMENT MAY NOW INCREASE TO    3.276E-02

 ITERATION SUMMARY FOR THE INCREMENT:   2 TOTAL ITERATIONS, OF WHICH
   0 ARE SEVERE DISCONTINUITY ITERATIONS AND  2 ARE EQUILIBRIUM ITERATIONS.

 TIME INCREMENT COMPLETED  2.621E-02,  FRACTION OF STEP COMPLETED  0.947    
 STEP TIME COMPLETED       0.947    ,  TOTAL TIME COMPLETED         1.95    


  INCREMENT    58 STARTS. ATTEMPT NUMBER  1, TIME INCREMENT  3.276E-02

  NUMBER OF EQUATIONS =     3802     NUMBER OF FLOATING PT. OPERATIONS =  2.02E+07

     CHECK POINT   START OF SOLVER    

     CHECK POINT  END OF SOLVER       

       ELAPSED USER TIME (SEC)      =   0.0000    
       ELAPSED SYSTEM TIME (SEC)    =   0.0000    
       ELAPSED TOTAL CPU TIME (SEC) =   0.0000    
       ELAPSED WALLCLOCK TIME (SEC) =          0
 

 ***WARNING: THE SYSTEM MATRIX HAS 1 NEGATIVE EIGENVALUES.
             EXPLANATIONS ARE SUGGESTED AFTER THE FIRST OCCURRENCE OF THIS MESSAGE.

               CONVERGENCE CHECKS FOR EQUILIBRIUM ITERATION     1


 AVERAGE FORCE                      8.866E+05   TIME AVG. FORCE       1.130E+06
 LARGEST RESIDUAL FORCE            -7.925E+06   AT NODE        406   DOF  2
   INSTANCE: BLOCK-1                                                                         
 LARGEST INCREMENT OF DISP.         3.016E-03   AT NODE        406   DOF  2
   INSTANCE: BLOCK-1                                                                         
 LARGEST CORRECTION TO DISP.       -1.683E-03   AT NODE          6   DOF  2
   INSTANCE: BLOCK-1                                                                         
          FORCE     EQUILIBRIUM NOT ACHIEVED WITHIN TOLERANCE.

  NUMBER OF EQUATIONS =     3802     NUMBER OF FLOATING PT. OPERATIONS =  2.02E+07

     CHECK POINT   START OF SOLVER    

     CHECK POINT  END OF SOLVER       

       ELAPSED USER TIME (SEC)      =   0.0000    
       ELAPSED SYSTEM TIME (SEC)    =   0.0000    
       ELAPSED TOTAL CPU TIME (SEC) =   0.0000    
       ELAPSED WALLCLOCK TIME (SEC) =          0

               CONVERGENCE CHECKS FOR EQUILIBRIUM ITERATION     2


 AVERAGE FORCE                      8.972E+05   TIME AVG. FORCE       1.130E+06
 LARGEST RESIDUAL FORCE             5.756E+07   AT NODE        498   DOF  2
   INSTANCE: BLOCK-1                                                                         
 LARGEST INCREMENT OF DISP.         8.476E-03   AT NODE          6   DOF  2
   INSTANCE: BLOCK-1                                                                         
 LARGEST CORRECTION TO DISP.        9.172E-03   AT NODE          6   DOF  1
   INSTANCE: BLOCK-1                                                                         
          FORCE     EQUILIBRIUM NOT ACHIEVED WITHIN TOLERANCE.

  NUMBER OF EQUATIONS =     3802     NUMBER OF FLOATING PT. OPERATIONS =  2.02E+07

     CHECK POINT   START OF SOLVER    

     CHECK POINT  END OF SOLVER       

       ELAPSED USER TIME (SEC)      =   0.0000    
       ELAPSED SYSTEM TIME (SEC)    =   0.0000    
       ELAPSED TOTAL CPU TIME (SEC) =   0.0000    
       ELAPSED WALLCLOCK TIME (SEC) =          0

               CONVERGENCE CHECKS FOR EQUILIBRIUM ITERATION     3


 AVERAGE FORCE                      8.841E+05   TIME AVG. FORCE       1.130E+06
 LARGEST RESIDUAL FORCE            -3.623E+06   AT NODE        705   DOF  1
   INSTANCE: BLOCK-1                                                                         
 LARGEST INCREMENT OF DISP.         2.908E-03   AT NODE         63   DOF  2
   INSTANCE: BLOCK-1                                                                         
 LARGEST CORRECTION TO DISP.       -7.090E-03   AT NODE          6   DOF  1
   INSTANCE: BLOCK-1                                                                         
          FORCE     EQUILIBRIUM NOT ACHIEVED WITHIN TOLERANCE.

  NUMBER OF EQUATIONS =     3802     NUMBER OF FLOATING PT. OPERATIONS =  2.02E+07

     CHECK POINT   START OF SOLVER    

     CHECK POINT  END OF SOLVER       

       ELAPSED USER TIME (SEC)      =  0.10000    
       ELAPSED SYSTEM TIME (SEC)    =   0.0000    
       ELAPSED TOTAL CPU TIME (SEC) =  0.10000    
       ELAPSED WALLCLOCK TIME (SEC) =          0

               CONVERGENCE CHECKS FOR EQUILIBRIUM ITERATION     4


 AVERAGE FORCE                      8.835E+05   TIME AVG. FORCE       1.130E+06
 LARGEST RESIDUAL FORCE             6.516E+05   AT NODE        498   DOF  2
   INSTANCE: BLOCK-1                                                                         
 LARGEST INCREMENT OF DISP.         2.908E-03   AT NODE         63   DOF  2
   INSTANCE: BLOCK-1                                                                         
 LARGEST CORRECTION TO DISP.       -3.385E-04   AT NODE        498   DOF  2
   INSTANCE: BLOCK-1                                                                         
          FORCE     EQUILIBRIUM NOT ACHIEVED WITHIN TOLERANCE.

  NUMBER OF EQUATIONS =     3802     NUMBER OF FLOATING PT. OPERATIONS =  2.02E+07

     CHECK POINT   START OF SOLVER    

     CHECK POINT  END OF SOLVER       

       ELAPSED USER TIME (SEC)      =  0.10000    
       ELAPSED SYSTEM TIME (SEC)    =   0.0000    
       ELAPSED TOTAL CPU TIME (SEC) =  0.10000    
       ELAPSED WALLCLOCK TIME (SEC) =          0

               CONVERGENCE CHECKS FOR EQUILIBRIUM ITERATION     5


 AVERAGE FORCE                      8.836E+05   TIME AVG. FORCE       1.130E+06
 LARGEST RESIDUAL FORCE             -968.       AT NODE          5   DOF  1
   INSTANCE: BLOCK-1                                                                         
 LARGEST INCREMENT OF DISP.         2.908E-03   AT NODE         63   DOF  2
   INSTANCE: BLOCK-1                                                                         
 LARGEST CORRECTION TO DISP.       -8.796E-05   AT NODE          6   DOF  1
   INSTANCE: BLOCK-1                                                                         
 ESTIMATE OF DISP.    CORRECTION    1.306E-07
 FORCE     EQUILIB. ACCEPTED BASED ON SMALL RESIDUAL AND ESTIMATED CORRECTION

  MAXIMUM HALF-INCREMENT FORCE RESIDUAL IS   1.049E+06 AND OCCURS AT NODE       1780 INSTANCE BLOCK-1                                                                         

 ITERATION SUMMARY FOR THE INCREMENT:   5 TOTAL ITERATIONS, OF WHICH
   0 ARE SEVERE DISCONTINUITY ITERATIONS AND  5 ARE EQUILIBRIUM ITERATIONS.

 TIME INCREMENT COMPLETED  3.276E-02,  FRACTION OF STEP COMPLETED  0.979    
 STEP TIME COMPLETED       0.979    ,  TOTAL TIME COMPLETED         1.98    


  INCREMENT    59 STARTS. ATTEMPT NUMBER  1, TIME INCREMENT  2.051E-02

  NUMBER OF EQUATIONS =     3802     NUMBER OF FLOATING PT. OPERATIONS =  2.02E+07

     CHECK POINT   START OF SOLVER    

     CHECK POINT  END OF SOLVER       

       ELAPSED USER TIME (SEC)      =   0.0000    
       ELAPSED SYSTEM TIME (SEC)    =   0.0000    
       ELAPSED TOTAL CPU TIME (SEC) =   0.0000    
       ELAPSED WALLCLOCK TIME (SEC) =          0

               CONVERGENCE CHECKS FOR EQUILIBRIUM ITERATION     1


 AVERAGE FORCE                      8.039E+05   TIME AVG. FORCE       1.125E+06
 LARGEST RESIDUAL FORCE             3.344E+05   AT NODE        711   DOF  2
   INSTANCE: BLOCK-1                                                                         
 LARGEST INCREMENT OF DISP.         1.787E-03   AT NODE        461   DOF  2
   INSTANCE: BLOCK-1                                                                         
 LARGEST CORRECTION TO DISP.       -1.981E-04   AT NODE          8   DOF  1
   INSTANCE: BLOCK-1                                                                         
          FORCE     EQUILIBRIUM NOT ACHIEVED WITHIN TOLERANCE.

  NUMBER OF EQUATIONS =     3802     NUMBER OF FLOATING PT. OPERATIONS =  2.02E+07

     CHECK POINT   START OF SOLVER    

     CHECK POINT  END OF SOLVER       

       ELAPSED USER TIME (SEC)      =  0.10000    
       ELAPSED SYSTEM TIME (SEC)    =   0.0000    
       ELAPSED TOTAL CPU TIME (SEC) =  0.10000    
       ELAPSED WALLCLOCK TIME (SEC) =          0

               CONVERGENCE CHECKS FOR EQUILIBRIUM ITERATION     2


 AVERAGE FORCE                      8.039E+05   TIME AVG. FORCE       1.125E+06
 LARGEST RESIDUAL FORCE             1.863E+04   AT NODE        176   DOF  2
   INSTANCE: BLOCK-1                                                                         
 LARGEST INCREMENT OF DISP.         1.787E-03   AT NODE        461   DOF  2
   INSTANCE: BLOCK-1                                                                         
 LARGEST CORRECTION TO DISP.       -1.932E-05   AT NODE        711   DOF  1
   INSTANCE: BLOCK-1                                                                         
          FORCE     EQUILIBRIUM NOT ACHIEVED WITHIN TOLERANCE.

  NUMBER OF EQUATIONS =     3802     NUMBER OF FLOATING PT. OPERATIONS =  2.02E+07

     CHECK POINT   START OF SOLVER    

     CHECK POINT  END OF SOLVER       

       ELAPSED USER TIME (SEC)      =  0.10000    
       ELAPSED SYSTEM TIME (SEC)    =   0.0000    
       ELAPSED TOTAL CPU TIME (SEC) =  0.10000    
       ELAPSED WALLCLOCK TIME (SEC) =          0

               CONVERGENCE CHECKS FOR EQUILIBRIUM ITERATION     3


 AVERAGE FORCE                      8.039E+05   TIME AVG. FORCE       1.125E+06
 LARGEST RESIDUAL FORCE             -139.       AT NODE        492   DOF  2
   INSTANCE: BLOCK-1                                                                         
 LARGEST INCREMENT OF DISP.         1.787E-03   AT NODE        461   DOF  2
   INSTANCE: BLOCK-1                                                                         
 LARGEST CORRECTION TO DISP.       -1.407E-06   AT NODE        838   DOF  2
   INSTANCE: BLOCK-1                                                                         
          THE FORCE     EQUILIBRIUM EQUATIONS HAVE CONVERGED

  MAXIMUM HALF-INCREMENT FORCE RESIDUAL IS   4.206E+05 AND OCCURS AT NODE        330 INSTANCE BLOCK-1                                                                         

 ITERATION SUMMARY FOR THE INCREMENT:   3 TOTAL ITERATIONS, OF WHICH
   0 ARE SEVERE DISCONTINUITY ITERATIONS AND  3 ARE EQUILIBRIUM ITERATIONS.

 TIME INCREMENT COMPLETED  2.051E-02,  FRACTION OF STEP COMPLETED   1.00    
 STEP TIME COMPLETED        1.00    ,  TOTAL TIME COMPLETED         2.00    


          THE ANALYSIS HAS BEEN COMPLETED



     ANALYSIS SUMMARY:
     TOTAL OF         60  INCREMENTS
                      10  CUTBACKS IN AUTOMATIC INCREMENTATION
                     144  ITERATIONS INCLUDING CONTACT ITERATIONS IF PRESENT
                     146  PASSES THROUGH THE EQUATION SOLVER OF WHICH 
                     146  INVOLVE MATRIX DECOMPOSITION, INCLUDING
                       2  DECOMPOSITION(S) OF THE MASS MATRIX
                       1  REORDERING OF EQUATIONS TO MINIMIZE WAVEFRONT
                       0  ADDITIONAL RESIDUAL EVALUATIONS FOR LINE SEARCHES
                       0  ADDITIONAL OPERATOR EVALUATIONS FOR LINE SEARCHES
                       4  WARNING MESSAGES DURING USER INPUT PROCESSING
                      22  WARNING MESSAGES DURING ANALYSIS
                       0  ANALYSIS WARNINGS ARE NUMERICAL PROBLEM MESSAGES
                       6  ANALYSIS WARNINGS ARE NEGATIVE EIGENVALUE MESSAGES
                       0  ERROR MESSAGES



     JOB TIME SUMMARY
       USER TIME (SEC)      =   26.900    
       SYSTEM TIME (SEC)    =   1.1000    
       TOTAL CPU TIME (SEC) =   28.000    
       WALLCLOCK TIME (SEC) =         31
