*Heading
** Job name: Job-1 Model name: Model-1
** Generated by: Abaqus/CAE 6.13-1
*Preprint, echo=NO, model=NO, history=NO, contact=NO
**
** PARTS
**
*Part, name=Block
*Node
      1,   10.9294462,   8.22908783
      2,   11.6459675,   8.86387062
      3,   11.9854174,   9.75892639
      4,   11.9854174,   10.2410736
      5,   11.6459675,   11.1361294
      6,   10.9294462,   11.7709122
      7,          10.,          12.
      8,   9.07055378,   11.7709122
      9,   8.35403252,   11.1361294
     10,   8.01458263,   10.2410736
     11,   8.01458263,   9.75892639
     12,   8.35403252,   8.86387062
     13,   9.07055378,   8.22908783
     14,          10.,           8.
     15,          19.,           0.
     16,          18.,           0.
     17,          17.,           0.
     18,          16.,           0.
     19,          15.,           0.
     20,          14.,           0.
** ... 1881 like lines cut
*Element, type=CPE4R
   1,   84,  480,  510,  650
   2,  769,  702,  101,  820
   3,  844,  100, 1021, 1069
   4, 1273, 1345,   99, 1204
   5, 1410, 1148, 1768, 1336
   6,   96,  853,  999, 1182
   7,  731,  789,  831,   95
   8,  496, 1660,  731,   95
   9,  503,   11,   10, 1661
  10, 1051, 1661,   10,  408
  11,  509, 1051,  408,    9
  12,  990, 1051,  509,  116
  13,  780,  761,  807,  134
  14,  761,  509,  493,  709
  15,  133,  896,  841,  709
  16, 1283, 1139, 1220,  320
  17, 1493, 1890, 1385, 1865
  18, 1201, 1807, 1313, 1342
  19, 1764, 1158,  357, 1807
  20,  392,  687,  753,  816
** ... 1788 like lines cut
*Nset, nset=Block, generate
    1,  1901,     1
*Elset, elset=Block, generate
    1,  1808,     1
** Section: Block
*Solid Section, elset=Block, material=Material-1
,
*End Part
**  
**
** ASSEMBLY
**
*Assembly, name=Assembly
**  
*Instance, name=BLOCK-1, part=Block
*End Instance
**  
*Nset, nset=Set-1, instance=BLOCK-1, generate
    1,  1901,     1
*Elset, elset=Set-1, instance=BLOCK-1, generate
    1,  1808,     1
*Nset, nset=Set-2, instance=BLOCK-1
  35,  75,  76,  77,  78,  79,  80,  81,  82,  83,  84,  85,  86,  87,  88,  89
  90,  91,  92,  93,  94, 472, 473, 474, 475, 476, 477, 478, 479, 480, 481, 482
 483, 484, 485, 486, 487, 488, 489, 490, 491
*Elset, elset=Set-2, instance=BLOCK-1
   1, 147, 148, 149, 150, 151, 152, 153, 154, 404, 405, 407, 418, 419, 420, 717
 718, 719, 720, 721, 722, 745, 829, 830, 832, 833, 834, 835, 836, 837, 838, 839
 840, 841, 842, 843, 844, 845, 846, 847
*Nset, nset=Set-3, instance=BLOCK-1
  34,  36,  37,  38,  39,  40,  41,  42,  43,  44,  45,  46,  47,  48,  49,  50
  51,  52,  53,  54,  55, 432, 433, 434, 435, 436, 437, 438, 439, 440, 441, 442
 443, 444, 445, 446, 447, 448, 449, 450, 451
*Elset, elset=Set-3, instance=BLOCK-1
 277, 278, 280, 291, 292, 293, 299, 300, 620, 637, 655, 665, 690, 787, 788, 790
 791, 792, 793, 794, 795, 796, 797, 798, 799, 800, 801, 802, 803, 804, 805, 806
 807, 809, 811, 813, 851, 852, 853, 855
*Nset, nset=Set-4, instance=BLOCK-1
  15,  16,  17,  18,  19,  20,  21,  22,  23,  24,  25,  26,  27,  28,  29,  30
  31,  32,  33,  34,  35, 412, 413, 414, 415, 416, 417, 418, 419, 420, 421, 422
 423, 424, 425, 426, 427, 428, 429, 430, 431
*Elset, elset=Set-4, instance=BLOCK-1
  44,  45,  46,  48, 146, 155, 166, 175, 185, 194, 204, 213, 222, 230, 236, 242
 247, 251, 254, 256, 277, 717, 750, 751, 763, 765, 767, 769, 770, 772, 773, 774
 775, 776, 777, 778, 779, 780, 782, 786
*Elset, elset=_Surf-1_S1, internal, instance=BLOCK-1
  21,  22,  23,  65,  67, 298, 301, 314, 325, 336, 346, 358, 359, 371, 383, 393
 753, 815, 816, 818, 820, 821, 822, 823, 824, 826, 828
*Elset, elset=_Surf-1_S3, internal, instance=BLOCK-1
  94, 102, 111, 274, 404, 707, 708, 709, 710, 716, 819
*Elset, elset=_Surf-1_S4, internal, instance=BLOCK-1
 299, 784
*Surface, type=ELEMENT, name=Surf-1
_Surf-1_S1, S1
_Surf-1_S3, S3
_Surf-1_S4, S4
*End Assembly
** 
** MATERIALS
** 
*Material, name=Material-1
*Density
 2.7e+06,
*Elastic
 7.52259e+09, 0.352214
*Concrete Damaged Plasticity
10.,  0.1, 1.16, 0.67,   0.
*Concrete Compression Hardening
 3.06996e+06,          0.
   3.417e+06, 0.000126506
 3.75583e+06, 0.000253013
 4.08644e+06, 0.000379519
 4.40885e+06, 0.000506026
 4.72304e+06, 0.000632532
 5.02902e+06, 0.000759039
 5.32678e+06, 0.000885545
 5.61634e+06,  0.00101205
 5.89768e+06,  0.00113856
 6.17081e+06,  0.00126506
 6.43573e+06,  0.00139157
 6.69243e+06,  0.00151808
 6.94092e+06,  0.00164458
  7.1812e+06,  0.00177109
 7.41327e+06,   0.0018976
 7.63712e+06,   0.0020241
 7.85277e+06,  0.00215061
  8.0602e+06,  0.00227712
 8.25941e+06,  0.00240362
** ... 81 like lines cut
*Concrete Tension Stiffening
 2.24136e+06,          0.
 2.21284e+06, 5.79457e-06
 2.18468e+06, 1.15891e-05
 2.15688e+06, 1.73837e-05
 2.12944e+06, 2.31783e-05
 2.10234e+06, 2.89729e-05
 2.07559e+06, 3.47674e-05
 2.04918e+06,  4.0562e-05
  2.0231e+06, 4.63566e-05
 1.99736e+06, 5.21511e-05
 1.97195e+06, 5.79457e-05
 1.94686e+06, 6.37403e-05
 1.92208e+06, 6.95349e-05
 1.89763e+06, 7.53294e-05
 1.87348e+06,  8.1124e-05
 1.84964e+06, 8.69186e-05
 1.82611e+06, 9.27132e-05
 1.80287e+06, 9.85077e-05
 1.77993e+06, 0.000104302
 1.75728e+06, 0.000110097
** ... 81 like lines cut
*Concrete Compression Damage
         0.,          0.
 0.00841006, 0.000126506
  0.0168201, 0.000253013
  0.0252302, 0.000379519
  0.0336403, 0.000506026
  0.0420503, 0.000632532
  0.0504604, 0.000759039
  0.0588704, 0.000885545
  0.0672805,  0.00101205
  0.0756906,  0.00113856
  0.0841006,  0.00126506
  0.0925107,  0.00139157
   0.100921,  0.00151808
   0.109331,  0.00164458
   0.117741,  0.00177109
   0.126151,   0.0018976
   0.134561,   0.0020241
   0.142971,  0.00215061
   0.151381,  0.00227712
   0.159791,  0.00240362
** ... 81 like lines cut
*Concrete Tension Damage
        0.,          0.
 0.0179482, 5.79457e-06
 0.0355742, 1.15891e-05
 0.0528837, 1.73837e-05
 0.0698825, 2.31783e-05
  0.086576, 2.89729e-05
   0.10297, 3.47674e-05
  0.119069,  4.0562e-05
   0.13488, 4.63566e-05
  0.150407, 5.21511e-05
  0.165654, 5.79457e-05
  0.180629, 6.37403e-05
  0.195334, 6.95349e-05
  0.209775, 7.53294e-05
  0.223957,  8.1124e-05
  0.237885, 8.69186e-05
  0.251562, 9.27132e-05
  0.264994, 9.85077e-05
  0.278185, 0.000104302
  0.291139, 0.000110097
** ... 81 like lines cut
** 
** BOUNDARY CONDITIONS
** 
** Name: BC-1 Type: Displacement/Rotation
*Boundary
Set-2, 1, 1
Set-2, 6, 6
** Name: BC-2 Type: Displacement/Rotation
*Boundary
Set-3, 1, 1
Set-3, 6, 6
** Name: BC-4 Type: Displacement/Rotation
*Boundary
Set-4, 2, 2
Set-4, 6, 6
** 
** PREDEFINED FIELDS
** 
** Name: Predefined Field-2   Type: Geostatic stress
*Initial Conditions, type=STRESS, GEOSTATIC
Set-1, 1e+07, 0., 9.8e+06, 20., 0.2, 0.2
** ----------------------------------------------------------------
** 
** STEP: Step-1
** 
*Step, name=Step-1, nlgeom=NO
*Geostatic
** 
** OUTPUT REQUESTS
** 
*Restart, write, frequency=0
** 
** FIELD OUTPUT: F-Output-2
** 
*Output, field
*Element Output, directions=YES
DAMAGEC, DAMAGET
** 
** FIELD OUTPUT: F-Output-1
** 
*Output, field, variable=PRESELECT
** 
** HISTORY OUTPUT: H-Output-1
** 
*Output, history, variable=PRESELECT
*End Step
** ----------------------------------------------------------------
** 
** STEP: Step-2
** 
*Step, name=Step-2, nlgeom=NO
*Dynamic
1.,1.,1e-05
** 
** LOADS
** 
** Name: Load-1   Type: Pressure
*Dsload
Surf-1, P, 1e+07
** 
** OUTPUT REQUESTS
** 
*Restart, write, frequency=0
** 
** FIELD OUTPUT: F-Output-2
** 
*Output, field, frequency=1
*Element Output, directions=YES
DAMAGEC, DAMAGET
** 
** FIELD OUTPUT: F-Output-1
** 
*Output, field, variable=PRESELECT, frequency=1
** 
** HISTORY OUTPUT: H-Output-1
** 
*Output, history, variable=PRESELECT, frequency=1
*End Step
