1

   Abaqus 6.13-1                                  Date 02-Mar-2016   Time 08:50:19
   For use by  under license from Dassault Systemes or its subsidiary.

                                                                                 
                                                                                 
 STEP    1     INCREMENT     1     STEP TIME    0.00    


                        S T E P       1     G E O S T A T I C   S T R E S S   A N A L Y S I S


                                                                                          

 CONVERGENCE TOLERANCE PARAMETERS FOR FORCE    
     CRITERION FOR RESIDUAL FORCE     FOR A NONLINEAR PROBLEM          5.000E-03
     CRITERION FOR DISP.    CORRECTION IN A NONLINEAR PROBLEM          1.000E-02
     INITIAL VALUE OF TIME AVERAGE FORCE                               1.000E-02
     AVERAGE FORCE     IS TIME AVERAGE FORCE    
     ALTERNATE CRIT. FOR RESIDUAL FORCE     FOR A NONLINEAR PROBLEM    2.000E-02
     CRITERION FOR ZERO FORCE     RELATIVE TO TIME AVRG. FORCE         1.000E-05
     CRITERION FOR RESIDUAL FORCE     WHEN THERE IS ZERO FLUX          1.000E-05
     CRITERION FOR DISP.    CORRECTION WHEN THERE IS ZERO FLUX         1.000E-03
     CRITERION FOR RESIDUAL FORCE     FOR A LINEAR INCREMENT           1.000E-08
     FIELD CONVERSION RATIO                                             1.00    
     CRITERION FOR ZERO FORCE     REL. TO TIME AVRG. MAX. FORCE        1.000E-05
     CRITERION FOR ZERO DISP.    RELATIVE TO CHARACTERISTIC LENGTH     1.000E-08

     VOLUMETRIC STRAIN COMPATIBILITY TOLERANCE FOR HYBRID SOLIDS       1.000E-05
     AXIAL STRAIN COMPATIBILITY TOLERANCE FOR HYBRID BEAMS             1.000E-05
     TRANS. SHEAR STRAIN COMPATIBILITY TOLERANCE FOR HYBRID BEAMS      1.000E-05
     SOFT CONTACT CONSTRAINT COMPATIBILITY TOLERANCE FOR P>P0          5.000E-03
     SOFT CONTACT CONSTRAINT COMPATIBILITY TOLERANCE FOR P=0.0         0.100    
     CONTACT FORCE ERROR TOLERANCE FOR CONVERT SDI=YES                 1.00    
     DISPLACEMENT COMPATIBILITY TOLERANCE FOR DCOUP ELEMENTS           1.000E-05
     ROTATION COMPATIBILITY TOLERANCE FOR DCOUP ELEMENTS               1.000E-05

 EQUILIBRIUM WILL BE CHECKED FOR SEVERE DISCONTINUITY ITERATIONS

 ITERATION CONTROL PARAMETERS:
     FIRST EQUILIBRIUM ITERATION FOR CONSECUTIVE DIVERGENCE CHECK              4
     EQUILIBRIUM ITERATION AFTER WHICH ALTERNATE RESIDUAL IS USED              9
     MAXIMUM EQUILIBRIUM ITERATIONS ALLOWED                                   16
     MAXIMUM ITERATIONS FOR SEVERE DISCONTINUITIES                            12
     GLOBAL STABILIZATION CONTROL IS NOT USED

          PRINT OF INCREMENT NUMBER, TIME, ETC., EVERY    1  INCREMENTS

     THE MAXIMUM NUMBER OF INCREMENTS IN THIS STEP IS                       1

          UNSYMMETRIC MATRIX STORAGE AND SOLUTION WILL BE USED

     LINEAR EXTRAPOLATION WILL BE USED

     CHARACTERISTIC ELEMENT LENGTH     0.463    

     DETAILS REGARDING ACTUAL SOLUTION WAVEFRONT REQUESTED

     DETAILED OUTPUT OF DIAGNOSTICS TO DATABASE REQUESTED

     PRINT OF INCREMENT NUMBER, TIME, ETC., TO THE MESSAGE FILE EVERY     1  INCREMENTS

     EQUATIONS ARE BEING REORDERED TO MINIMIZE WAVEFRONT

     COLLECTING MODEL CONSTRAINT INFORMATION FOR OVERCONSTRAINT CHECKS

     COLLECTING STEP CONSTRAINT INFORMATION FOR OVERCONSTRAINT CHECKS

  NUMBER OF EQUATIONS =     3802     NUMBER OF FLOATING PT. OPERATIONS =  2.02E+07

     CHECK POINT   START OF SOLVER    

     CHECK POINT  END OF SOLVER       

       ELAPSED USER TIME (SEC)      =   0.0000    
       ELAPSED SYSTEM TIME (SEC)    =   0.0000    
       ELAPSED TOTAL CPU TIME (SEC) =   0.0000    
       ELAPSED WALLCLOCK TIME (SEC) =          0

               CONVERGENCE CHECKS FOR EQUILIBRIUM ITERATION     1


 AVERAGE FORCE                      3.783E+05   TIME AVG. FORCE       3.783E+05
 LARGEST RESIDUAL FORCE            -2.621E+05   AT NODE        509   DOF  2
   INSTANCE: BLOCK-1                                                                         
 LARGEST INCREMENT OF DISP.        -1.657E-02   AT NODE        452   DOF  2
   INSTANCE: BLOCK-1                                                                         
 LARGEST CORRECTION TO DISP.       -1.657E-02   AT NODE        452   DOF  2
   INSTANCE: BLOCK-1                                                                         
          FORCE     EQUILIBRIUM NOT ACHIEVED WITHIN TOLERANCE.

  NUMBER OF EQUATIONS =     3802     NUMBER OF FLOATING PT. OPERATIONS =  2.02E+07

     CHECK POINT   START OF SOLVER    

     CHECK POINT  END OF SOLVER       

       ELAPSED USER TIME (SEC)      =   0.0000    
       ELAPSED SYSTEM TIME (SEC)    =   0.0000    
       ELAPSED TOTAL CPU TIME (SEC) =   0.0000    
       ELAPSED WALLCLOCK TIME (SEC) =          0

               CONVERGENCE CHECKS FOR EQUILIBRIUM ITERATION     2


 AVERAGE FORCE                      3.714E+05   TIME AVG. FORCE       3.714E+05
 LARGEST RESIDUAL FORCE             1.545E+05   AT NODE        931   DOF  2
   INSTANCE: BLOCK-1                                                                         
 LARGEST INCREMENT OF DISP.        -1.650E-02   AT NODE         55   DOF  2
   INSTANCE: BLOCK-1                                                                         
 LARGEST CORRECTION TO DISP.        2.215E-04   AT NODE        896   DOF  2
   INSTANCE: BLOCK-1                                                                         
          FORCE     EQUILIBRIUM NOT ACHIEVED WITHIN TOLERANCE.

  NUMBER OF EQUATIONS =     3802     NUMBER OF FLOATING PT. OPERATIONS =  2.02E+07

     CHECK POINT   START OF SOLVER    

     CHECK POINT  END OF SOLVER       

       ELAPSED USER TIME (SEC)      =   0.0000    
       ELAPSED SYSTEM TIME (SEC)    =   0.0000    
       ELAPSED TOTAL CPU TIME (SEC) =   0.0000    
       ELAPSED WALLCLOCK TIME (SEC) =          0

               CONVERGENCE CHECKS FOR EQUILIBRIUM ITERATION     3


 AVERAGE FORCE                      3.713E+05   TIME AVG. FORCE       3.713E+05
 LARGEST RESIDUAL FORCE            -1.337E+04   AT NODE        307   DOF  2
   INSTANCE: BLOCK-1                                                                         
 LARGEST INCREMENT OF DISP.        -1.649E-02   AT NODE        452   DOF  2
   INSTANCE: BLOCK-1                                                                         
 LARGEST CORRECTION TO DISP.        3.041E-05   AT NODE        931   DOF  2
   INSTANCE: BLOCK-1                                                                         
          FORCE     EQUILIBRIUM NOT ACHIEVED WITHIN TOLERANCE.

  NUMBER OF EQUATIONS =     3802     NUMBER OF FLOATING PT. OPERATIONS =  2.02E+07

     CHECK POINT   START OF SOLVER    

     CHECK POINT  END OF SOLVER       

       ELAPSED USER TIME (SEC)      =  0.10000    
       ELAPSED SYSTEM TIME (SEC)    =   0.0000    
       ELAPSED TOTAL CPU TIME (SEC) =  0.10000    
       ELAPSED WALLCLOCK TIME (SEC) =          0

               CONVERGENCE CHECKS FOR EQUILIBRIUM ITERATION     4


 AVERAGE FORCE                      3.713E+05   TIME AVG. FORCE       3.713E+05
 LARGEST RESIDUAL FORCE              335.       AT NODE       1609   DOF  2
   INSTANCE: BLOCK-1                                                                         
 LARGEST INCREMENT OF DISP.        -1.649E-02   AT NODE        452   DOF  2
   INSTANCE: BLOCK-1                                                                         
 LARGEST CORRECTION TO DISP.        2.513E-06   AT NODE        839   DOF  2
   INSTANCE: BLOCK-1                                                                         
          THE FORCE     EQUILIBRIUM EQUATIONS HAVE CONVERGED

 ITERATION SUMMARY FOR THE INCREMENT:   4 TOTAL ITERATIONS, OF WHICH
   0 ARE SEVERE DISCONTINUITY ITERATIONS AND  4 ARE EQUILIBRIUM ITERATIONS.

 TIME INCREMENT COMPLETED   1.00    ,  FRACTION OF STEP COMPLETED   1.00    
 STEP TIME COMPLETED        1.00    ,  TOTAL TIME COMPLETED         1.00    
1

   Abaqus 6.13-1                                  Date 02-Mar-2016   Time 08:50:19
   For use by  under license from Dassault Systemes or its subsidiary.

                                                                                 
                                                                                 
 STEP    2     INCREMENT     1     STEP TIME    0.00    


                        S T E P       2     D Y N A M I C   A N A L Y S I S - I M P L I C I T  I N T E G R A T I O N


                                                                                          

          DYNAMIC APPLICATION PACKED SCHEME IS                 TRANSIENT FIDELITY  
          HILBER-HUGHES-TAYLOR (HHT) TIME INTEGRATOR IS USED

     AUTOMATIC TIME CONTROL WITH -
          A SUGGESTED INITIAL TIME INCREMENT OF                 1.00    
          AND A TOTAL TIME PERIOD OF                            1.00    
          THE MINIMUM TIME INCREMENT ALLOWED IS                1.000E-05
          THE MAXIMUM TIME INCREMENT ALLOWED IS                 1.00    
          SCALE FACTOR ON TIME AVERAGE FORCE FOR HALF-
           -INCREMENT RESIDUAL COMPUTATIONS IS                 1.000E+03

          HILBER-HUGHES-TAYLOR METHOD PARAMETERS:  ALPHA   IS  -5.000000E-02
                                                   BETA    IS   0.275625    
                                                   GAMMA   IS   0.550000    
          SINGULAR MASS TREATMENT TYPE IS                     ERROR
          CONSERVATIVE TIME INCREMENTATION IS USED
          STEP AMPLITUDE IS                                    STEP

 CONVERGENCE TOLERANCE PARAMETERS FOR FORCE    
     CRITERION FOR RESIDUAL FORCE     FOR A NONLINEAR PROBLEM          5.000E-03
     CRITERION FOR DISP.    CORRECTION IN A NONLINEAR PROBLEM          1.000E-02
     INIT. VALUE OF TIME AVG. FORCE     IS TIME AVG. FORCE     IN PREVIOUS STEP
     AVERAGE FORCE     IS TIME AVERAGE FORCE    
     ALTERNATE CRIT. FOR RESIDUAL FORCE     FOR A NONLINEAR PROBLEM    2.000E-02
     CRITERION FOR ZERO FORCE     RELATIVE TO TIME AVRG. FORCE         1.000E-05
     CRITERION FOR RESIDUAL FORCE     WHEN THERE IS ZERO FLUX          1.000E-05
     CRITERION FOR DISP.    CORRECTION WHEN THERE IS ZERO FLUX         1.000E-03
     CRITERION FOR RESIDUAL FORCE     FOR A LINEAR INCREMENT           1.000E-08
     FIELD CONVERSION RATIO                                             1.00    
     CRITERION FOR ZERO FORCE     REL. TO TIME AVRG. MAX. FORCE        1.000E-05
     CRITERION FOR ZERO DISP.    RELATIVE TO CHARACTERISTIC LENGTH     1.000E-08

     VOLUMETRIC STRAIN COMPATIBILITY TOLERANCE FOR HYBRID SOLIDS       1.000E-05
     AXIAL STRAIN COMPATIBILITY TOLERANCE FOR HYBRID BEAMS             1.000E-05
     TRANS. SHEAR STRAIN COMPATIBILITY TOLERANCE FOR HYBRID BEAMS      1.000E-05
     SOFT CONTACT CONSTRAINT COMPATIBILITY TOLERANCE FOR P>P0          5.000E-03
     SOFT CONTACT CONSTRAINT COMPATIBILITY TOLERANCE FOR P=0.0         0.100    
     CONTACT FORCE ERROR TOLERANCE FOR CONVERT SDI=YES                 1.00    
     DISPLACEMENT COMPATIBILITY TOLERANCE FOR DCOUP ELEMENTS           1.000E-05
     ROTATION COMPATIBILITY TOLERANCE FOR DCOUP ELEMENTS               1.000E-05

 EQUILIBRIUM WILL BE CHECKED FOR SEVERE DISCONTINUITY ITERATIONS

 TIME INCREMENTATION CONTROL PARAMETERS:
     FIRST EQUILIBRIUM ITERATION FOR CONSECUTIVE DIVERGENCE CHECK              4
     EQUILIBRIUM ITERATION AT WHICH LOG. CONVERGENCE RATE CHECK BEGINS         8
     EQUILIBRIUM ITERATION AFTER WHICH ALTERNATE RESIDUAL IS USED              9
     MAXIMUM EQUILIBRIUM ITERATIONS ALLOWED                                   16
     EQUILIBRIUM ITERATION COUNT FOR CUT-BACK IN NEXT INCREMENT               10
     MAXIMUM EQUILIB. ITERS IN TWO INCREMENTS FOR TIME INCREMENT INCREASE      4
     MAXIMUM ITERATIONS FOR SEVERE DISCONTINUITIES                            50
     MAXIMUM CUT-BACKS ALLOWED IN AN INCREMENT                                 5
     MAXIMUM DISCON. ITERS IN TWO INCREMENTS FOR TIME INCREMENT INCREASE      50
     MAXIMUM CONTACT AUGMENTATIONS FOR *SURFACE BEHAVIOR,AUGMENTED LAGRANGE   50
     CONSECUTIVE INCS MEETING TIME INTEG. TOL. FOR TIME INC. INCREASE          3
     CUT-BACK FACTOR AFTER DIVERGENCE                                 0.2500    
     CUT-BACK FACTOR FOR TOO SLOW CONVERGENCE                         0.5000    
     CUT-BACK FACTOR AFTER TOO MANY EQUILIBRIUM ITERATIONS            0.7500    
     CUT-BACK FACTOR AFTER TOO MANY SEVERE DISCONTINUITY ITERATIONS   0.2500    
     CUT-BACK FACTOR AFTER PROBLEMS IN ELEMENT ASSEMBLY               0.2500    
     INCREASE FACTOR AFTER TWO INCREMENTS THAT CONVERGE QUICKLY        1.500    
     MAX. TIME INCREMENT INCREASE FACTOR ALLOWED                       1.500    
     MAX. TIME INCREMENT INCREASE FACTOR ALLOWED (DYNAMICS)            1.250    
     MAX. TIME INCREMENT INCREASE FACTOR ALLOWED (DIFFUSION)           2.000    
     MINIMUM TIME INCREMENT RATIO FOR EXTRAPOLATION TO OCCUR          0.1000    
     CUT-BACK FACTOR WHEN TIME INTEGRATION ACCURACY TOL. EXCEEDED     0.8500    
     MAX. RATIO OF TIME INTEG. MEASURE TO TOL. FOR TIME INC. INCREASE 0.7500    
     INCREASE FACTOR FOR TIME INCREMENT WHEN POSSIBLE                 0.8000    
     MIN. TIME INC. INCREASE FACTOR IN LINEAR TRANSIENT PROBLEMS      0.9500    
     MAX. RATIO OF TIME INCREMENT TO STABILITY LIMIT                   1.000    
     FRACTION OF STABILITY LIMIT FOR NEW TIME INCREMENT               0.9500    
     TIME INCREMENT INCREASE FACTOR BEFORE A TIME POINT                1.000    
     GLOBAL STABILIZATION CONTROL IS NOT USED

          PRINT OF INCREMENT NUMBER, TIME, ETC., EVERY    1  INCREMENTS

     THE MAXIMUM NUMBER OF INCREMENTS IN THIS STEP IS                     100

          UNSYMMETRIC MATRIX STORAGE AND SOLUTION WILL BE USED

     VELOCITY-BASED PARABOLIC EXTRAPOLATION WILL BE USED

     CHARACTERISTIC ELEMENT LENGTH     0.463    

     DETAILS REGARDING ACTUAL SOLUTION WAVEFRONT REQUESTED

     DETAILED OUTPUT OF DIAGNOSTICS TO DATABASE REQUESTED

     PRINT OF INCREMENT NUMBER, TIME, ETC., TO THE MESSAGE FILE EVERY     1  INCREMENTS

     COLLECTING STEP CONSTRAINT INFORMATION FOR OVERCONSTRAINT CHECKS

  NUMBER OF EQUATIONS =     3802     NUMBER OF FLOATING PT. OPERATIONS =  2.02E+07

     CHECK POINT   START OF SOLVER    

     CHECK POINT  END OF SOLVER       

       ELAPSED USER TIME (SEC)      =  0.10000    
       ELAPSED SYSTEM TIME (SEC)    =   0.0000    
       ELAPSED TOTAL CPU TIME (SEC) =  0.10000    
       ELAPSED WALLCLOCK TIME (SEC) =          0

  NUMBER OF EQUATIONS =     3802     NUMBER OF FLOATING PT. OPERATIONS =  2.02E+07

     CHECK POINT   START OF SOLVER    

     CHECK POINT  END OF SOLVER       

       ELAPSED USER TIME (SEC)      =   0.0000    
       ELAPSED SYSTEM TIME (SEC)    =   0.0000    
       ELAPSED TOTAL CPU TIME (SEC) =   0.0000    
       ELAPSED WALLCLOCK TIME (SEC) =          0


  INCREMENT     1 STARTS. ATTEMPT NUMBER  1, TIME INCREMENT   1.00    

  NUMBER OF EQUATIONS =     3802     NUMBER OF FLOATING PT. OPERATIONS =  2.02E+07

     CHECK POINT   START OF SOLVER    

     CHECK POINT  END OF SOLVER       

       ELAPSED USER TIME (SEC)      =  0.10000    
       ELAPSED SYSTEM TIME (SEC)    =   0.0000    
       ELAPSED TOTAL CPU TIME (SEC) =  0.10000    
       ELAPSED WALLCLOCK TIME (SEC) =          0

               CONVERGENCE CHECKS FOR EQUILIBRIUM ITERATION     1


 AVERAGE FORCE                      1.689E+06   TIME AVG. FORCE       1.689E+06
 LARGEST RESIDUAL FORCE             2.343E+06   AT NODE        661   DOF  2
   INSTANCE: BLOCK-1                                                                         
 LARGEST INCREMENT OF DISP.        -3.248E-02   AT NODE         65   DOF  2
   INSTANCE: BLOCK-1                                                                         
 LARGEST CORRECTION TO DISP.       -3.248E-02   AT NODE         65   DOF  2
   INSTANCE: BLOCK-1                                                                         
          FORCE     EQUILIBRIUM NOT ACHIEVED WITHIN TOLERANCE.

  NUMBER OF EQUATIONS =     3802     NUMBER OF FLOATING PT. OPERATIONS =  2.02E+07

     CHECK POINT   START OF SOLVER    

     CHECK POINT  END OF SOLVER       

       ELAPSED USER TIME (SEC)      =   0.0000    
       ELAPSED SYSTEM TIME (SEC)    =   0.0000    
       ELAPSED TOTAL CPU TIME (SEC) =   0.0000    
       ELAPSED WALLCLOCK TIME (SEC) =          0

               CONVERGENCE CHECKS FOR EQUILIBRIUM ITERATION     2


 AVERAGE FORCE                      1.680E+06   TIME AVG. FORCE       1.680E+06
 LARGEST RESIDUAL FORCE            -3.234E+05   AT NODE          4   DOF  1
   INSTANCE: BLOCK-1                                                                         
 LARGEST INCREMENT OF DISP.        -3.307E-02   AT NODE         65   DOF  2
   INSTANCE: BLOCK-1                                                                         
 LARGEST CORRECTION TO DISP.       -1.236E-03   AT NODE          6   DOF  2
   INSTANCE: BLOCK-1                                                                         
          FORCE     EQUILIBRIUM NOT ACHIEVED WITHIN TOLERANCE.

  NUMBER OF EQUATIONS =     3802     NUMBER OF FLOATING PT. OPERATIONS =  2.02E+07

     CHECK POINT   START OF SOLVER    

     CHECK POINT  END OF SOLVER       

       ELAPSED USER TIME (SEC)      =   0.0000    
       ELAPSED SYSTEM TIME (SEC)    =   0.0000    
       ELAPSED TOTAL CPU TIME (SEC) =   0.0000    
       ELAPSED WALLCLOCK TIME (SEC) =          0

               CONVERGENCE CHECKS FOR EQUILIBRIUM ITERATION     3


 AVERAGE FORCE                      1.679E+06   TIME AVG. FORCE       1.679E+06
 LARGEST RESIDUAL FORCE            -2.673E+04   AT NODE          4   DOF  1
   INSTANCE: BLOCK-1                                                                         
 LARGEST INCREMENT OF DISP.        -3.313E-02   AT NODE         65   DOF  2
   INSTANCE: BLOCK-1                                                                         
 LARGEST CORRECTION TO DISP.       -1.928E-04   AT NODE        403   DOF  2
   INSTANCE: BLOCK-1                                                                         
          FORCE     EQUILIBRIUM NOT ACHIEVED WITHIN TOLERANCE.

  NUMBER OF EQUATIONS =     3802     NUMBER OF FLOATING PT. OPERATIONS =  2.02E+07

     CHECK POINT   START OF SOLVER    

     CHECK POINT  END OF SOLVER       

       ELAPSED USER TIME (SEC)      =   0.0000    
       ELAPSED SYSTEM TIME (SEC)    =   0.0000    
       ELAPSED TOTAL CPU TIME (SEC) =   0.0000    
       ELAPSED WALLCLOCK TIME (SEC) =          0

               CONVERGENCE CHECKS FOR EQUILIBRIUM ITERATION     4


 AVERAGE FORCE                      1.679E+06   TIME AVG. FORCE       1.679E+06
 LARGEST RESIDUAL FORCE             -741.       AT NODE          4   DOF  1
   INSTANCE: BLOCK-1                                                                         
 LARGEST INCREMENT OF DISP.        -3.314E-02   AT NODE         65   DOF  2
   INSTANCE: BLOCK-1                                                                         
 LARGEST CORRECTION TO DISP.       -1.912E-05   AT NODE        403   DOF  2
   INSTANCE: BLOCK-1                                                                         
          THE FORCE     EQUILIBRIUM EQUATIONS HAVE CONVERGED

  MAXIMUM HALF-INCREMENT FORCE RESIDUAL IS   1.364E+10 AND OCCURS AT NODE         72 INSTANCE BLOCK-1                                                                         
 

 ***NOTE: THE TIME INTEGRATION ACCURACY TOLERANCE HAS BEEN EXCEEDED.


  INCREMENT     1 STARTS. ATTEMPT NUMBER  2, TIME INCREMENT  0.105    

  NUMBER OF EQUATIONS =     3802     NUMBER OF FLOATING PT. OPERATIONS =  2.02E+07

     CHECK POINT   START OF SOLVER    

     CHECK POINT  END OF SOLVER       

       ELAPSED USER TIME (SEC)      =   0.0000    
       ELAPSED SYSTEM TIME (SEC)    =   0.0000    
       ELAPSED TOTAL CPU TIME (SEC) =   0.0000    
       ELAPSED WALLCLOCK TIME (SEC) =          0

               CONVERGENCE CHECKS FOR EQUILIBRIUM ITERATION     1


 AVERAGE FORCE                      4.936E+05   TIME AVG. FORCE       4.936E+05
 LARGEST RESIDUAL FORCE            -3.138E+04   AT NODE        116   DOF  1
   INSTANCE: BLOCK-1                                                                         
 LARGEST INCREMENT OF DISP.        -5.656E-03   AT NODE         65   DOF  2
   INSTANCE: BLOCK-1                                                                         
 LARGEST CORRECTION TO DISP.       -5.656E-03   AT NODE         65   DOF  2
   INSTANCE: BLOCK-1                                                                         
          FORCE     EQUILIBRIUM NOT ACHIEVED WITHIN TOLERANCE.

  NUMBER OF EQUATIONS =     3802     NUMBER OF FLOATING PT. OPERATIONS =  2.02E+07

     CHECK POINT   START OF SOLVER    

     CHECK POINT  END OF SOLVER       

       ELAPSED USER TIME (SEC)      =   0.0000    
       ELAPSED SYSTEM TIME (SEC)    =   0.0000    
       ELAPSED TOTAL CPU TIME (SEC) =   0.0000    
       ELAPSED WALLCLOCK TIME (SEC) =          1

               CONVERGENCE CHECKS FOR EQUILIBRIUM ITERATION     2


 AVERAGE FORCE                      4.934E+05   TIME AVG. FORCE       4.934E+05
 LARGEST RESIDUAL FORCE              353.       AT NODE        494   DOF  2
   INSTANCE: BLOCK-1                                                                         
 LARGEST INCREMENT OF DISP.        -5.656E-03   AT NODE         65   DOF  2
   INSTANCE: BLOCK-1                                                                         
 LARGEST CORRECTION TO DISP.        7.387E-06   AT NODE         13   DOF  2
   INSTANCE: BLOCK-1                                                                         
          THE FORCE     EQUILIBRIUM EQUATIONS HAVE CONVERGED

  MAXIMUM HALF-INCREMENT FORCE RESIDUAL IS   1.462E+08 AND OCCURS AT NODE         72 INSTANCE BLOCK-1                                                                         

 ITERATION SUMMARY FOR THE INCREMENT:   2 TOTAL ITERATIONS, OF WHICH
   0 ARE SEVERE DISCONTINUITY ITERATIONS AND  2 ARE EQUILIBRIUM ITERATIONS.

 TIME INCREMENT COMPLETED  0.105    ,  FRACTION OF STEP COMPLETED  0.105    
 STEP TIME COMPLETED       0.105    ,  TOTAL TIME COMPLETED         1.10    


  INCREMENT     2 STARTS. ATTEMPT NUMBER  1, TIME INCREMENT  0.105    

  NUMBER OF EQUATIONS =     3802     NUMBER OF FLOATING PT. OPERATIONS =  2.02E+07

     CHECK POINT   START OF SOLVER    

     CHECK POINT  END OF SOLVER       

       ELAPSED USER TIME (SEC)      =   0.0000    
       ELAPSED SYSTEM TIME (SEC)    =   0.0000    
       ELAPSED TOTAL CPU TIME (SEC) =   0.0000    
       ELAPSED WALLCLOCK TIME (SEC) =          0

               CONVERGENCE CHECKS FOR EQUILIBRIUM ITERATION     1


 AVERAGE FORCE                      7.743E+05   TIME AVG. FORCE       6.339E+05
 LARGEST RESIDUAL FORCE            -8.291E+04   AT NODE          4   DOF  1
   INSTANCE: BLOCK-1                                                                         
 LARGEST INCREMENT OF DISP.        -7.313E-03   AT NODE        827   DOF  2
   INSTANCE: BLOCK-1                                                                         
 LARGEST CORRECTION TO DISP.        1.156E-02   AT NODE         72   DOF  2
   INSTANCE: BLOCK-1                                                                         
          FORCE     EQUILIBRIUM NOT ACHIEVED WITHIN TOLERANCE.

  NUMBER OF EQUATIONS =     3802     NUMBER OF FLOATING PT. OPERATIONS =  2.02E+07

     CHECK POINT   START OF SOLVER    

     CHECK POINT  END OF SOLVER       

       ELAPSED USER TIME (SEC)      =  0.10000    
       ELAPSED SYSTEM TIME (SEC)    =   0.0000    
       ELAPSED TOTAL CPU TIME (SEC) =  0.10000    
       ELAPSED WALLCLOCK TIME (SEC) =          0

               CONVERGENCE CHECKS FOR EQUILIBRIUM ITERATION     2


 AVERAGE FORCE                      7.740E+05   TIME AVG. FORCE       6.337E+05
 LARGEST RESIDUAL FORCE             4.190E+03   AT NODE       1662   DOF  2
   INSTANCE: BLOCK-1                                                                         
 LARGEST INCREMENT OF DISP.        -7.313E-03   AT NODE        827   DOF  2
   INSTANCE: BLOCK-1                                                                         
 LARGEST CORRECTION TO DISP.       -5.987E-05   AT NODE          4   DOF  1
   INSTANCE: BLOCK-1                                                                         
          FORCE     EQUILIBRIUM NOT ACHIEVED WITHIN TOLERANCE.

  NUMBER OF EQUATIONS =     3802     NUMBER OF FLOATING PT. OPERATIONS =  2.02E+07

     CHECK POINT   START OF SOLVER    

     CHECK POINT  END OF SOLVER       

       ELAPSED USER TIME (SEC)      =   0.0000    
       ELAPSED SYSTEM TIME (SEC)    =   0.0000    
       ELAPSED TOTAL CPU TIME (SEC) =   0.0000    
       ELAPSED WALLCLOCK TIME (SEC) =          0

               CONVERGENCE CHECKS FOR EQUILIBRIUM ITERATION     3


 AVERAGE FORCE                      7.740E+05   TIME AVG. FORCE       6.337E+05
 LARGEST RESIDUAL FORCE             -30.3       AT NODE        501   DOF  2
   INSTANCE: BLOCK-1                                                                         
 LARGEST INCREMENT OF DISP.        -7.313E-03   AT NODE        827   DOF  2
   INSTANCE: BLOCK-1                                                                         
 LARGEST CORRECTION TO DISP.       -2.078E-06   AT NODE          4   DOF  1
   INSTANCE: BLOCK-1                                                                         
          THE FORCE     EQUILIBRIUM EQUATIONS HAVE CONVERGED

  MAXIMUM HALF-INCREMENT FORCE RESIDUAL IS   2.466E+07 AND OCCURS AT NODE        516 INSTANCE BLOCK-1                                                                         

 ITERATION SUMMARY FOR THE INCREMENT:   3 TOTAL ITERATIONS, OF WHICH
   0 ARE SEVERE DISCONTINUITY ITERATIONS AND  3 ARE EQUILIBRIUM ITERATIONS.

 TIME INCREMENT COMPLETED  0.105    ,  FRACTION OF STEP COMPLETED  0.209    
 STEP TIME COMPLETED       0.209    ,  TOTAL TIME COMPLETED         1.21    


  INCREMENT     3 STARTS. ATTEMPT NUMBER  1, TIME INCREMENT  0.105    

  NUMBER OF EQUATIONS =     3802     NUMBER OF FLOATING PT. OPERATIONS =  2.02E+07

     CHECK POINT   START OF SOLVER    

     CHECK POINT  END OF SOLVER       

       ELAPSED USER TIME (SEC)      =  0.10000    
       ELAPSED SYSTEM TIME (SEC)    =   0.0000    
       ELAPSED TOTAL CPU TIME (SEC) =  0.10000    
       ELAPSED WALLCLOCK TIME (SEC) =          0
 

 ***WARNING: THE SYSTEM MATRIX HAS 11 NEGATIVE EIGENVALUES.

     NEGATIVE EIGENVALUES MEAN THAT THE SYSTEM MATRIX IS NOT 
     POSITIVE DEFINITE:
     FOR EXAMPLE, A BIFURCATION (BUCKLING) LOAD MAY HAVE BEEN EXCEEDED.

               CONVERGENCE CHECKS FOR EQUILIBRIUM ITERATION     1


 AVERAGE FORCE                      1.450E+06   TIME AVG. FORCE       9.057E+05
 LARGEST RESIDUAL FORCE             1.600E+08   AT NODE       1062   DOF  2
   INSTANCE: BLOCK-1                                                                         
 LARGEST INCREMENT OF DISP.        -7.295E-02   AT NODE       1062   DOF  2
   INSTANCE: BLOCK-1                                                                         
 LARGEST CORRECTION TO DISP.       -6.313E-02   AT NODE       1062   DOF  2
   INSTANCE: BLOCK-1                                                                         
          FORCE     EQUILIBRIUM NOT ACHIEVED WITHIN TOLERANCE.

  NUMBER OF EQUATIONS =     3802     NUMBER OF FLOATING PT. OPERATIONS =  2.02E+07

     CHECK POINT   START OF SOLVER    

     CHECK POINT  END OF SOLVER       

       ELAPSED USER TIME (SEC)      =  0.10000    
       ELAPSED SYSTEM TIME (SEC)    =   0.0000    
       ELAPSED TOTAL CPU TIME (SEC) =  0.10000    
       ELAPSED WALLCLOCK TIME (SEC) =          1
 

 ***WARNING: THE SYSTEM MATRIX HAS 4 NEGATIVE EIGENVALUES.
             EXPLANATIONS ARE SUGGESTED AFTER THE FIRST OCCURRENCE OF THIS MESSAGE.

               CONVERGENCE CHECKS FOR EQUILIBRIUM ITERATION     2


 AVERAGE FORCE                      1.082E+06   TIME AVG. FORCE       7.830E+05
 LARGEST RESIDUAL FORCE             3.557E+07   AT NODE       1158   DOF  1
   INSTANCE: BLOCK-1                                                                         
 LARGEST INCREMENT OF DISP.        -5.032E-02   AT NODE        920   DOF  2
   INSTANCE: BLOCK-1                                                                         
 LARGEST CORRECTION TO DISP.        8.389E-02   AT NODE       1062   DOF  2
   INSTANCE: BLOCK-1                                                                         
          FORCE     EQUILIBRIUM NOT ACHIEVED WITHIN TOLERANCE.

  NUMBER OF EQUATIONS =     3802     NUMBER OF FLOATING PT. OPERATIONS =  2.02E+07

     CHECK POINT   START OF SOLVER    

     CHECK POINT  END OF SOLVER       

       ELAPSED USER TIME (SEC)      =   0.0000    
       ELAPSED SYSTEM TIME (SEC)    =   0.0000    
       ELAPSED TOTAL CPU TIME (SEC) =   0.0000    
       ELAPSED WALLCLOCK TIME (SEC) =          0
 

 ***WARNING: THE SYSTEM MATRIX HAS 6 NEGATIVE EIGENVALUES.
             EXPLANATIONS ARE SUGGESTED AFTER THE FIRST OCCURRENCE OF THIS MESSAGE.

               CONVERGENCE CHECKS FOR EQUILIBRIUM ITERATION     3


 AVERAGE FORCE                      1.139E+06   TIME AVG. FORCE       8.021E+05
 LARGEST RESIDUAL FORCE             1.258E+08   AT NODE       1158   DOF  2
   INSTANCE: BLOCK-1                                                                         
 LARGEST INCREMENT OF DISP.         9.464E-02   AT NODE       1766   DOF  1
   INSTANCE: BLOCK-1                                                                         
 LARGEST CORRECTION TO DISP.        0.118       AT NODE       1766   DOF  1
   INSTANCE: BLOCK-1                                                                         
          FORCE     EQUILIBRIUM NOT ACHIEVED WITHIN TOLERANCE.

  NUMBER OF EQUATIONS =     3802     NUMBER OF FLOATING PT. OPERATIONS =  2.02E+07

     CHECK POINT   START OF SOLVER    

     CHECK POINT  END OF SOLVER       

       ELAPSED USER TIME (SEC)      =  0.10000    
       ELAPSED SYSTEM TIME (SEC)    =  0.10000    
       ELAPSED TOTAL CPU TIME (SEC) =  0.20000    
       ELAPSED WALLCLOCK TIME (SEC) =          0
 

 ***WARNING: THE SYSTEM MATRIX HAS 6 NEGATIVE EIGENVALUES.
             EXPLANATIONS ARE SUGGESTED AFTER THE FIRST OCCURRENCE OF THIS MESSAGE.

               CONVERGENCE CHECKS FOR EQUILIBRIUM ITERATION     4


 AVERAGE FORCE                      1.202E+06   TIME AVG. FORCE       8.231E+05
 LARGEST RESIDUAL FORCE             1.394E+08   AT NODE       1076   DOF  2
   INSTANCE: BLOCK-1                                                                         
 LARGEST INCREMENT OF DISP.         7.117E-02   AT NODE        917   DOF  2
   INSTANCE: BLOCK-1                                                                         
 LARGEST CORRECTION TO DISP.       -0.111       AT NODE       1766   DOF  1
   INSTANCE: BLOCK-1                                                                         
          FORCE     EQUILIBRIUM NOT ACHIEVED WITHIN TOLERANCE.
 

 ***NOTE: THE SOLUTION APPEARS TO BE DIVERGING. CONVERGENCE IS JUDGED UNLIKELY.


  INCREMENT     3 STARTS. ATTEMPT NUMBER  2, TIME INCREMENT  2.616E-02

 ***WARNING: THE PLASTICITY/CREEP/CONNECTOR FRICTION ALGORITHM DID NOT CONVERGE 
             AT 5 POINTS
 

 ***NOTE: MATERIAL CALCULATIONS FAILED TO CONVERGE OR WERE NOT ATTEMPTED AT ONE 
          OR MORE POINTS. CONVERGENCE IS JUDGED UNLIKELY.

 ***WARNING: CONVERGENCE JUDGED UNLIKELY.  INCREMENT WILL BE ATTEMPTED AGAIN 
             WITH A TIME INCREMENT OF 6.54072E-03


  INCREMENT     3 STARTS. ATTEMPT NUMBER  3, TIME INCREMENT  6.541E-03

  NUMBER OF EQUATIONS =     3802     NUMBER OF FLOATING PT. OPERATIONS =  2.02E+07

     CHECK POINT   START OF SOLVER    

     CHECK POINT  END OF SOLVER       

       ELAPSED USER TIME (SEC)      =   0.0000    
       ELAPSED SYSTEM TIME (SEC)    =   0.0000    
       ELAPSED TOTAL CPU TIME (SEC) =   0.0000    
       ELAPSED WALLCLOCK TIME (SEC) =          0

               CONVERGENCE CHECKS FOR EQUILIBRIUM ITERATION     1


 AVERAGE FORCE                      7.798E+05   TIME AVG. FORCE       6.824E+05
 LARGEST RESIDUAL FORCE            -7.947E+04   AT NODE          4   DOF  1
   INSTANCE: BLOCK-1                                                                         
 LARGEST INCREMENT OF DISP.        -5.794E-04   AT NODE       1427   DOF  2
   INSTANCE: BLOCK-1                                                                         
 LARGEST CORRECTION TO DISP.       -5.794E-04   AT NODE       1427   DOF  2
   INSTANCE: BLOCK-1                                                                         
          FORCE     EQUILIBRIUM NOT ACHIEVED WITHIN TOLERANCE.

  NUMBER OF EQUATIONS =     3802     NUMBER OF FLOATING PT. OPERATIONS =  2.02E+07

     CHECK POINT   START OF SOLVER    

     CHECK POINT  END OF SOLVER       

       ELAPSED USER TIME (SEC)      =   0.0000    
       ELAPSED SYSTEM TIME (SEC)    =   0.0000    
       ELAPSED TOTAL CPU TIME (SEC) =   0.0000    
       ELAPSED WALLCLOCK TIME (SEC) =          0

               CONVERGENCE CHECKS FOR EQUILIBRIUM ITERATION     2


 AVERAGE FORCE                      7.797E+05   TIME AVG. FORCE       6.824E+05
 LARGEST RESIDUAL FORCE             -59.5       AT NODE        504   DOF  2
   INSTANCE: BLOCK-1                                                                         
 LARGEST INCREMENT OF DISP.        -5.794E-04   AT NODE       1427   DOF  2
   INSTANCE: BLOCK-1                                                                         
 LARGEST CORRECTION TO DISP.       -3.562E-06   AT NODE          4   DOF  1
   INSTANCE: BLOCK-1                                                                         
          THE FORCE     EQUILIBRIUM EQUATIONS HAVE CONVERGED

  MAXIMUM HALF-INCREMENT FORCE RESIDUAL IS  -6.251E+05 AND OCCURS AT NODE         72 INSTANCE BLOCK-1                                                                         
          TIME INCREMENT MAY NOW INCREASE TO    8.176E-03

 ITERATION SUMMARY FOR THE INCREMENT:   2 TOTAL ITERATIONS, OF WHICH
   0 ARE SEVERE DISCONTINUITY ITERATIONS AND  2 ARE EQUILIBRIUM ITERATIONS.

 TIME INCREMENT COMPLETED  6.541E-03,  FRACTION OF STEP COMPLETED  0.216    
 STEP TIME COMPLETED       0.216    ,  TOTAL TIME COMPLETED         1.22    


  INCREMENT     4 STARTS. ATTEMPT NUMBER  1, TIME INCREMENT  8.176E-03

  NUMBER OF EQUATIONS =     3802     NUMBER OF FLOATING PT. OPERATIONS =  2.02E+07

     CHECK POINT   START OF SOLVER    

     CHECK POINT  END OF SOLVER       

       ELAPSED USER TIME (SEC)      =   0.0000    
       ELAPSED SYSTEM TIME (SEC)    =   0.0000    
       ELAPSED TOTAL CPU TIME (SEC) =   0.0000    
       ELAPSED WALLCLOCK TIME (SEC) =          0

               CONVERGENCE CHECKS FOR EQUILIBRIUM ITERATION     1


 AVERAGE FORCE                      8.005E+05   TIME AVG. FORCE       7.119E+05
 LARGEST RESIDUAL FORCE             1.508E+03   AT NODE          8   DOF  1
   INSTANCE: BLOCK-1                                                                         
 LARGEST INCREMENT OF DISP.        -7.519E-04   AT NODE          7   DOF  2
   INSTANCE: BLOCK-1                                                                         
 LARGEST CORRECTION TO DISP.        1.982E-04   AT NODE         72   DOF  2
   INSTANCE: BLOCK-1                                                                         
 ESTIMATE OF DISP.    CORRECTION   -3.170E-08
 FORCE     EQUILIB. ACCEPTED BASED ON SMALL RESIDUAL AND ESTIMATED CORRECTION

  MAXIMUM HALF-INCREMENT FORCE RESIDUAL IS  -9.790E+05 AND OCCURS AT NODE        639 INSTANCE BLOCK-1                                                                         
          TIME INCREMENT MAY NOW INCREASE TO    1.022E-02

 ITERATION SUMMARY FOR THE INCREMENT:   1 TOTAL ITERATIONS, OF WHICH
   0 ARE SEVERE DISCONTINUITY ITERATIONS AND  1 ARE EQUILIBRIUM ITERATIONS.

 TIME INCREMENT COMPLETED  8.176E-03,  FRACTION OF STEP COMPLETED  0.224    
 STEP TIME COMPLETED       0.224    ,  TOTAL TIME COMPLETED         1.22    


  INCREMENT     5 STARTS. ATTEMPT NUMBER  1, TIME INCREMENT  1.022E-02

  NUMBER OF EQUATIONS =     3802     NUMBER OF FLOATING PT. OPERATIONS =  2.02E+07

     CHECK POINT   START OF SOLVER    

     CHECK POINT  END OF SOLVER       

       ELAPSED USER TIME (SEC)      =   0.0000    
       ELAPSED SYSTEM TIME (SEC)    =   0.0000    
       ELAPSED TOTAL CPU TIME (SEC) =   0.0000    
       ELAPSED WALLCLOCK TIME (SEC) =          0

               CONVERGENCE CHECKS FOR EQUILIBRIUM ITERATION     1


 AVERAGE FORCE                      8.255E+05   TIME AVG. FORCE       7.346E+05
 LARGEST RESIDUAL FORCE              30.7       AT NODE       1051   DOF  2
   INSTANCE: BLOCK-1                                                                         
 LARGEST INCREMENT OF DISP.        -1.016E-03   AT NODE          7   DOF  2
   INSTANCE: BLOCK-1                                                                         
 LARGEST CORRECTION TO DISP.        3.052E-04   AT NODE        467   DOF  2
   INSTANCE: BLOCK-1                                                                         
 ESTIMATE OF DISP.    CORRECTION   -1.159E-09
 FORCE     EQUILIB. ACCEPTED BASED ON SMALL RESIDUAL AND ESTIMATED CORRECTION

  MAXIMUM HALF-INCREMENT FORCE RESIDUAL IS  -1.039E+06 AND OCCURS AT NODE        636 INSTANCE BLOCK-1                                                                         
          TIME INCREMENT MAY NOW INCREASE TO    1.277E-02

 ITERATION SUMMARY FOR THE INCREMENT:   1 TOTAL ITERATIONS, OF WHICH
   0 ARE SEVERE DISCONTINUITY ITERATIONS AND  1 ARE EQUILIBRIUM ITERATIONS.

 TIME INCREMENT COMPLETED  1.022E-02,  FRACTION OF STEP COMPLETED  0.234    
 STEP TIME COMPLETED       0.234    ,  TOTAL TIME COMPLETED         1.23    


  INCREMENT     6 STARTS. ATTEMPT NUMBER  1, TIME INCREMENT  1.277E-02

  NUMBER OF EQUATIONS =     3802     NUMBER OF FLOATING PT. OPERATIONS =  2.02E+07

     CHECK POINT   START OF SOLVER    

     CHECK POINT  END OF SOLVER       

       ELAPSED USER TIME (SEC)      =   0.0000    
       ELAPSED SYSTEM TIME (SEC)    =   0.0000    
       ELAPSED TOTAL CPU TIME (SEC) =   0.0000    
       ELAPSED WALLCLOCK TIME (SEC) =          0
 

 ***WARNING: THE SYSTEM MATRIX HAS 2 NEGATIVE EIGENVALUES.
             EXPLANATIONS ARE SUGGESTED AFTER THE FIRST OCCURRENCE OF THIS MESSAGE.

               CONVERGENCE CHECKS FOR EQUILIBRIUM ITERATION     1


 AVERAGE FORCE                      9.740E+05   TIME AVG. FORCE       7.745E+05
 LARGEST RESIDUAL FORCE             2.952E+08   AT NODE        452   DOF  2
   INSTANCE: BLOCK-1                                                                         
 LARGEST INCREMENT OF DISP.        -2.054E-02   AT NODE         75   DOF  2
   INSTANCE: BLOCK-1                                                                         
 LARGEST CORRECTION TO DISP.       -2.014E-02   AT NODE         75   DOF  2
   INSTANCE: BLOCK-1                                                                         
          FORCE     EQUILIBRIUM NOT ACHIEVED WITHIN TOLERANCE.

  NUMBER OF EQUATIONS =     3802     NUMBER OF FLOATING PT. OPERATIONS =  2.02E+07

     CHECK POINT   START OF SOLVER    

     CHECK POINT  END OF SOLVER       

       ELAPSED USER TIME (SEC)      =   0.0000    
       ELAPSED SYSTEM TIME (SEC)    =   0.0000    
       ELAPSED TOTAL CPU TIME (SEC) =   0.0000    
       ELAPSED WALLCLOCK TIME (SEC) =          0

               CONVERGENCE CHECKS FOR EQUILIBRIUM ITERATION     2


 AVERAGE FORCE                      8.522E+05   TIME AVG. FORCE       7.542E+05
 LARGEST RESIDUAL FORCE             8.064E+06   AT NODE        462   DOF  2
   INSTANCE: BLOCK-1                                                                         
 LARGEST INCREMENT OF DISP.        -1.379E-03   AT NODE          7   DOF  2
   INSTANCE: BLOCK-1                                                                         
 LARGEST CORRECTION TO DISP.        1.977E-02   AT NODE         75   DOF  2
   INSTANCE: BLOCK-1                                                                         
          FORCE     EQUILIBRIUM NOT ACHIEVED WITHIN TOLERANCE.

  NUMBER OF EQUATIONS =     3802     NUMBER OF FLOATING PT. OPERATIONS =  2.02E+07

     CHECK POINT   START OF SOLVER    

     CHECK POINT  END OF SOLVER       

       ELAPSED USER TIME (SEC)      =   0.0000    
       ELAPSED SYSTEM TIME (SEC)    =   0.0000    
       ELAPSED TOTAL CPU TIME (SEC) =   0.0000    
       ELAPSED WALLCLOCK TIME (SEC) =          0

               CONVERGENCE CHECKS FOR EQUILIBRIUM ITERATION     3


 AVERAGE FORCE                      8.480E+05   TIME AVG. FORCE       7.535E+05
 LARGEST RESIDUAL FORCE            -1.593E-03   AT NODE          4   DOF  1
   INSTANCE: BLOCK-1                                                                         
 LARGEST INCREMENT OF DISP.        -1.379E-03   AT NODE          7   DOF  2
   INSTANCE: BLOCK-1                                                                         
 LARGEST CORRECTION TO DISP.        3.562E-04   AT NODE         65   DOF  2
   INSTANCE: BLOCK-1                                                                         
          THE FORCE     EQUILIBRIUM EQUATIONS HAVE CONVERGED

  MAXIMUM HALF-INCREMENT FORCE RESIDUAL IS   2.511E+06 AND OCCURS AT NODE        639 INSTANCE BLOCK-1                                                                         
          TIME INCREMENT MAY NOW INCREASE TO    1.597E-02

 ITERATION SUMMARY FOR THE INCREMENT:   3 TOTAL ITERATIONS, OF WHICH
   0 ARE SEVERE DISCONTINUITY ITERATIONS AND  3 ARE EQUILIBRIUM ITERATIONS.

 TIME INCREMENT COMPLETED  1.277E-02,  FRACTION OF STEP COMPLETED  0.247    
 STEP TIME COMPLETED       0.247    ,  TOTAL TIME COMPLETED         1.25    


  INCREMENT     7 STARTS. ATTEMPT NUMBER  1, TIME INCREMENT  1.597E-02

  NUMBER OF EQUATIONS =     3802     NUMBER OF FLOATING PT. OPERATIONS =  2.02E+07

     CHECK POINT   START OF SOLVER    

     CHECK POINT  END OF SOLVER       

       ELAPSED USER TIME (SEC)      =   0.0000    
       ELAPSED SYSTEM TIME (SEC)    =   0.0000    
       ELAPSED TOTAL CPU TIME (SEC) =   0.0000    
       ELAPSED WALLCLOCK TIME (SEC) =          0

               CONVERGENCE CHECKS FOR EQUILIBRIUM ITERATION     1


 AVERAGE FORCE                      8.948E+05   TIME AVG. FORCE       7.737E+05
 LARGEST RESIDUAL FORCE             2.179E+07   AT NODE        562   DOF  2
   INSTANCE: BLOCK-1                                                                         
 LARGEST INCREMENT OF DISP.        -1.862E-03   AT NODE        406   DOF  2
   INSTANCE: BLOCK-1                                                                         
 LARGEST CORRECTION TO DISP.       -1.241E-03   AT NODE         70   DOF  2
   INSTANCE: BLOCK-1                                                                         
          FORCE     EQUILIBRIUM NOT ACHIEVED WITHIN TOLERANCE.

  NUMBER OF EQUATIONS =     3802     NUMBER OF FLOATING PT. OPERATIONS =  2.02E+07

     CHECK POINT   START OF SOLVER    

     CHECK POINT  END OF SOLVER       

       ELAPSED USER TIME (SEC)      =   0.0000    
       ELAPSED SYSTEM TIME (SEC)    =   0.0000    
       ELAPSED TOTAL CPU TIME (SEC) =   0.0000    
       ELAPSED WALLCLOCK TIME (SEC) =          0

               CONVERGENCE CHECKS FOR EQUILIBRIUM ITERATION     2


 AVERAGE FORCE                      8.814E+05   TIME AVG. FORCE       7.718E+05
 LARGEST RESIDUAL FORCE              4.80       AT NODE        495   DOF  2
   INSTANCE: BLOCK-1                                                                         
 LARGEST INCREMENT OF DISP.        -1.862E-03   AT NODE        406   DOF  2
   INSTANCE: BLOCK-1                                                                         
 LARGEST CORRECTION TO DISP.        8.961E-04   AT NODE         70   DOF  2
   INSTANCE: BLOCK-1                                                                         
 ESTIMATE OF DISP.    CORRECTION    3.568E-10
 FORCE     EQUILIB. ACCEPTED BASED ON SMALL RESIDUAL AND ESTIMATED CORRECTION

  MAXIMUM HALF-INCREMENT FORCE RESIDUAL IS  -2.635E+06 AND OCCURS AT NODE        639 INSTANCE BLOCK-1                                                                         
          TIME INCREMENT MAY NOW INCREASE TO    1.996E-02

 ITERATION SUMMARY FOR THE INCREMENT:   2 TOTAL ITERATIONS, OF WHICH
   0 ARE SEVERE DISCONTINUITY ITERATIONS AND  2 ARE EQUILIBRIUM ITERATIONS.

 TIME INCREMENT COMPLETED  1.597E-02,  FRACTION OF STEP COMPLETED  0.263    
 STEP TIME COMPLETED       0.263    ,  TOTAL TIME COMPLETED         1.26    


  INCREMENT     8 STARTS. ATTEMPT NUMBER  1, TIME INCREMENT  1.996E-02

  NUMBER OF EQUATIONS =     3802     NUMBER OF FLOATING PT. OPERATIONS =  2.02E+07

     CHECK POINT   START OF SOLVER    

     CHECK POINT  END OF SOLVER       

       ELAPSED USER TIME (SEC)      =   0.0000    
       ELAPSED SYSTEM TIME (SEC)    =   0.0000    
       ELAPSED TOTAL CPU TIME (SEC) =   0.0000    
       ELAPSED WALLCLOCK TIME (SEC) =          0

               CONVERGENCE CHECKS FOR EQUILIBRIUM ITERATION     1


 AVERAGE FORCE                      9.729E+05   TIME AVG. FORCE       7.969E+05
 LARGEST RESIDUAL FORCE             9.059E+07   AT NODE        700   DOF  2
   INSTANCE: BLOCK-1                                                                         
 LARGEST INCREMENT OF DISP.        -4.733E-03   AT NODE        700   DOF  2
   INSTANCE: BLOCK-1                                                                         
 LARGEST CORRECTION TO DISP.        3.690E-03   AT NODE        768   DOF  2
   INSTANCE: BLOCK-1                                                                         
          FORCE     EQUILIBRIUM NOT ACHIEVED WITHIN TOLERANCE.

  NUMBER OF EQUATIONS =     3802     NUMBER OF FLOATING PT. OPERATIONS =  2.02E+07

     CHECK POINT   START OF SOLVER    

     CHECK POINT  END OF SOLVER       

       ELAPSED USER TIME (SEC)      =   0.0000    
       ELAPSED SYSTEM TIME (SEC)    =   0.0000    
       ELAPSED TOTAL CPU TIME (SEC) =   0.0000    
       ELAPSED WALLCLOCK TIME (SEC) =          0

               CONVERGENCE CHECKS FOR EQUILIBRIUM ITERATION     2


 AVERAGE FORCE                      9.358E+05   TIME AVG. FORCE       7.923E+05
 LARGEST RESIDUAL FORCE            -2.310E+07   AT NODE        604   DOF  2
   INSTANCE: BLOCK-1                                                                         
 LARGEST INCREMENT OF DISP.        -2.550E-03   AT NODE        491   DOF  2
   INSTANCE: BLOCK-1                                                                         
 LARGEST CORRECTION TO DISP.        3.630E-03   AT NODE        700   DOF  2
   INSTANCE: BLOCK-1                                                                         
          FORCE     EQUILIBRIUM NOT ACHIEVED WITHIN TOLERANCE.

  NUMBER OF EQUATIONS =     3802     NUMBER OF FLOATING PT. OPERATIONS =  2.02E+07

     CHECK POINT   START OF SOLVER    

     CHECK POINT  END OF SOLVER       

       ELAPSED USER TIME (SEC)      =   0.0000    
       ELAPSED SYSTEM TIME (SEC)    =   0.0000    
       ELAPSED TOTAL CPU TIME (SEC) =   0.0000    
       ELAPSED WALLCLOCK TIME (SEC) =          0

               CONVERGENCE CHECKS FOR EQUILIBRIUM ITERATION     3


 AVERAGE FORCE                      9.294E+05   TIME AVG. FORCE       7.915E+05
 LARGEST RESIDUAL FORCE             4.023E+06   AT NODE        604   DOF  2
   INSTANCE: BLOCK-1                                                                         
 LARGEST INCREMENT OF DISP.        -2.466E-03   AT NODE        406   DOF  2
   INSTANCE: BLOCK-1                                                                         
 LARGEST CORRECTION TO DISP.       -1.991E-03   AT NODE         94   DOF  2
   INSTANCE: BLOCK-1                                                                         
          FORCE     EQUILIBRIUM NOT ACHIEVED WITHIN TOLERANCE.

  NUMBER OF EQUATIONS =     3802     NUMBER OF FLOATING PT. OPERATIONS =  2.02E+07

     CHECK POINT   START OF SOLVER    

     CHECK POINT  END OF SOLVER       

       ELAPSED USER TIME (SEC)      =  0.10000    
       ELAPSED SYSTEM TIME (SEC)    =   0.0000    
       ELAPSED TOTAL CPU TIME (SEC) =  0.10000    
       ELAPSED WALLCLOCK TIME (SEC) =          0

               CONVERGENCE CHECKS FOR EQUILIBRIUM ITERATION     4


 AVERAGE FORCE                      9.290E+05   TIME AVG. FORCE       7.915E+05
 LARGEST RESIDUAL FORCE            -2.420E-03   AT NODE        498   DOF  2
   INSTANCE: BLOCK-1                                                                         
 LARGEST INCREMENT OF DISP.        -2.466E-03   AT NODE        406   DOF  2
   INSTANCE: BLOCK-1                                                                         
 LARGEST CORRECTION TO DISP.        2.549E-04   AT NODE         94   DOF  2
   INSTANCE: BLOCK-1                                                                         
          THE FORCE     EQUILIBRIUM EQUATIONS HAVE CONVERGED

  MAXIMUM HALF-INCREMENT FORCE RESIDUAL IS  -2.740E+06 AND OCCURS AT NODE       1641 INSTANCE BLOCK-1                                                                         
          TIME INCREMENT MAY NOW INCREASE TO    2.495E-02

 ITERATION SUMMARY FOR THE INCREMENT:   4 TOTAL ITERATIONS, OF WHICH
   0 ARE SEVERE DISCONTINUITY ITERATIONS AND  4 ARE EQUILIBRIUM ITERATIONS.

 TIME INCREMENT COMPLETED  1.996E-02,  FRACTION OF STEP COMPLETED  0.283    
 STEP TIME COMPLETED       0.283    ,  TOTAL TIME COMPLETED         1.28    


  INCREMENT     9 STARTS. ATTEMPT NUMBER  1, TIME INCREMENT  2.495E-02

 ***WARNING: THE PLASTICITY/CREEP/CONNECTOR FRICTION ALGORITHM DID NOT CONVERGE 
             AT 1 POINTS
 

 ***NOTE: MATERIAL CALCULATIONS FAILED TO CONVERGE OR WERE NOT ATTEMPTED AT ONE 
          OR MORE POINTS. CONVERGENCE IS JUDGED UNLIKELY.

 ***WARNING: CONVERGENCE JUDGED UNLIKELY.  INCREMENT WILL BE ATTEMPTED AGAIN 
             WITH A TIME INCREMENT OF 6.23772E-03


  INCREMENT     9 STARTS. ATTEMPT NUMBER  2, TIME INCREMENT  6.238E-03

  NUMBER OF EQUATIONS =     3802     NUMBER OF FLOATING PT. OPERATIONS =  2.02E+07

     CHECK POINT   START OF SOLVER    

     CHECK POINT  END OF SOLVER       

       ELAPSED USER TIME (SEC)      =  0.10000    
       ELAPSED SYSTEM TIME (SEC)    =   0.0000    
       ELAPSED TOTAL CPU TIME (SEC) =  0.10000    
       ELAPSED WALLCLOCK TIME (SEC) =          0

               CONVERGENCE CHECKS FOR EQUILIBRIUM ITERATION     1


 AVERAGE FORCE                      9.413E+05   TIME AVG. FORCE       8.081E+05
 LARGEST RESIDUAL FORCE              146.       AT NODE        493   DOF  2
   INSTANCE: BLOCK-1                                                                         
 LARGEST INCREMENT OF DISP.        -7.795E-04   AT NODE        406   DOF  2
   INSTANCE: BLOCK-1                                                                         
 LARGEST CORRECTION TO DISP.       -4.381E-05   AT NODE       1667   DOF  2
   INSTANCE: BLOCK-1                                                                         
 ESTIMATE OF DISP.    CORRECTION   -1.697E-09
 FORCE     EQUILIB. ACCEPTED BASED ON SMALL RESIDUAL AND ESTIMATED CORRECTION

  MAXIMUM HALF-INCREMENT FORCE RESIDUAL IS   5.654E+05 AND OCCURS AT NODE        639 INSTANCE BLOCK-1                                                                         
          TIME INCREMENT MAY NOW INCREASE TO    7.797E-03

 ITERATION SUMMARY FOR THE INCREMENT:   1 TOTAL ITERATIONS, OF WHICH
   0 ARE SEVERE DISCONTINUITY ITERATIONS AND  1 ARE EQUILIBRIUM ITERATIONS.

 TIME INCREMENT COMPLETED  6.238E-03,  FRACTION OF STEP COMPLETED  0.289    
 STEP TIME COMPLETED       0.289    ,  TOTAL TIME COMPLETED         1.29    


  INCREMENT    10 STARTS. ATTEMPT NUMBER  1, TIME INCREMENT  7.797E-03

  NUMBER OF EQUATIONS =     3802     NUMBER OF FLOATING PT. OPERATIONS =  2.02E+07

     CHECK POINT   START OF SOLVER    

     CHECK POINT  END OF SOLVER       

       ELAPSED USER TIME (SEC)      =   0.0000    
       ELAPSED SYSTEM TIME (SEC)    =   0.0000    
       ELAPSED TOTAL CPU TIME (SEC) =   0.0000    
       ELAPSED WALLCLOCK TIME (SEC) =          0

               CONVERGENCE CHECKS FOR EQUILIBRIUM ITERATION     1


 AVERAGE FORCE                      9.595E+05   TIME AVG. FORCE       8.232E+05
 LARGEST RESIDUAL FORCE              73.1       AT NODE       1671   DOF  1
   INSTANCE: BLOCK-1                                                                         
 LARGEST INCREMENT OF DISP.        -9.492E-04   AT NODE        406   DOF  2
   INSTANCE: BLOCK-1                                                                         
 LARGEST CORRECTION TO DISP.        7.755E-05   AT NODE       1641   DOF  2
   INSTANCE: BLOCK-1                                                                         
 ESTIMATE OF DISP.    CORRECTION    1.092E-09
 FORCE     EQUILIB. ACCEPTED BASED ON SMALL RESIDUAL AND ESTIMATED CORRECTION

  MAXIMUM HALF-INCREMENT FORCE RESIDUAL IS   5.827E+05 AND OCCURS AT NODE        625 INSTANCE BLOCK-1                                                                         
          TIME INCREMENT MAY NOW INCREASE TO    9.746E-03

 ITERATION SUMMARY FOR THE INCREMENT:   1 TOTAL ITERATIONS, OF WHICH
   0 ARE SEVERE DISCONTINUITY ITERATIONS AND  1 ARE EQUILIBRIUM ITERATIONS.

 TIME INCREMENT COMPLETED  7.797E-03,  FRACTION OF STEP COMPLETED  0.297    
 STEP TIME COMPLETED       0.297    ,  TOTAL TIME COMPLETED         1.30    


  INCREMENT    11 STARTS. ATTEMPT NUMBER  1, TIME INCREMENT  9.746E-03

  NUMBER OF EQUATIONS =     3802     NUMBER OF FLOATING PT. OPERATIONS =  2.02E+07

     CHECK POINT   START OF SOLVER    

     CHECK POINT  END OF SOLVER       

       ELAPSED USER TIME (SEC)      =   0.0000    
       ELAPSED SYSTEM TIME (SEC)    =   0.0000    
       ELAPSED TOTAL CPU TIME (SEC) =   0.0000    
       ELAPSED WALLCLOCK TIME (SEC) =          0

               CONVERGENCE CHECKS FOR EQUILIBRIUM ITERATION     1


 AVERAGE FORCE                      9.866E+05   TIME AVG. FORCE       8.381E+05
 LARGEST RESIDUAL FORCE            -1.065E+05   AT NODE       1008   DOF  2
   INSTANCE: BLOCK-1                                                                         
 LARGEST INCREMENT OF DISP.        -1.110E-03   AT NODE        405   DOF  2
   INSTANCE: BLOCK-1                                                                         
 LARGEST CORRECTION TO DISP.        1.449E-04   AT NODE        468   DOF  2
   INSTANCE: BLOCK-1                                                                         
          FORCE     EQUILIBRIUM NOT ACHIEVED WITHIN TOLERANCE.

  NUMBER OF EQUATIONS =     3802     NUMBER OF FLOATING PT. OPERATIONS =  2.02E+07

     CHECK POINT   START OF SOLVER    

     CHECK POINT  END OF SOLVER       

       ELAPSED USER TIME (SEC)      =   0.0000    
       ELAPSED SYSTEM TIME (SEC)    =   0.0000    
       ELAPSED TOTAL CPU TIME (SEC) =   0.0000    
       ELAPSED WALLCLOCK TIME (SEC) =          0

               CONVERGENCE CHECKS FOR EQUILIBRIUM ITERATION     2


 AVERAGE FORCE                      9.866E+05   TIME AVG. FORCE       8.381E+05
 LARGEST RESIDUAL FORCE             -13.6       AT NODE       1008   DOF  2
   INSTANCE: BLOCK-1                                                                         
 LARGEST INCREMENT OF DISP.        -1.110E-03   AT NODE        405   DOF  2
   INSTANCE: BLOCK-1                                                                         
 LARGEST CORRECTION TO DISP.        3.635E-06   AT NODE        319   DOF  2
   INSTANCE: BLOCK-1                                                                         
          THE FORCE     EQUILIBRIUM EQUATIONS HAVE CONVERGED

  MAXIMUM HALF-INCREMENT FORCE RESIDUAL IS  -1.087E+06 AND OCCURS AT NODE        563 INSTANCE BLOCK-1                                                                         
          TIME INCREMENT MAY NOW INCREASE TO    1.218E-02

 ITERATION SUMMARY FOR THE INCREMENT:   2 TOTAL ITERATIONS, OF WHICH
   0 ARE SEVERE DISCONTINUITY ITERATIONS AND  2 ARE EQUILIBRIUM ITERATIONS.

 TIME INCREMENT COMPLETED  9.746E-03,  FRACTION OF STEP COMPLETED  0.307    
 STEP TIME COMPLETED       0.307    ,  TOTAL TIME COMPLETED         1.31    


  INCREMENT    12 STARTS. ATTEMPT NUMBER  1, TIME INCREMENT  1.218E-02

  NUMBER OF EQUATIONS =     3802     NUMBER OF FLOATING PT. OPERATIONS =  2.02E+07

     CHECK POINT   START OF SOLVER    

     CHECK POINT  END OF SOLVER       

       ELAPSED USER TIME (SEC)      =  0.10000    
       ELAPSED SYSTEM TIME (SEC)    =   0.0000    
       ELAPSED TOTAL CPU TIME (SEC) =  0.10000    
       ELAPSED WALLCLOCK TIME (SEC) =          0

               CONVERGENCE CHECKS FOR EQUILIBRIUM ITERATION     1


 AVERAGE FORCE                      1.017E+06   TIME AVG. FORCE       8.530E+05
 LARGEST RESIDUAL FORCE             1.143E+06   AT NODE       1011   DOF  2
   INSTANCE: BLOCK-1                                                                         
 LARGEST INCREMENT OF DISP.        -1.252E-03   AT NODE          7   DOF  2
   INSTANCE: BLOCK-1                                                                         
 LARGEST CORRECTION TO DISP.        1.999E-04   AT NODE        395   DOF  2
   INSTANCE: BLOCK-1                                                                         
          FORCE     EQUILIBRIUM NOT ACHIEVED WITHIN TOLERANCE.

  NUMBER OF EQUATIONS =     3802     NUMBER OF FLOATING PT. OPERATIONS =  2.02E+07

     CHECK POINT   START OF SOLVER    

     CHECK POINT  END OF SOLVER       

       ELAPSED USER TIME (SEC)      =  0.10000    
       ELAPSED SYSTEM TIME (SEC)    =   0.0000    
       ELAPSED TOTAL CPU TIME (SEC) =  0.10000    
       ELAPSED WALLCLOCK TIME (SEC) =          0

               CONVERGENCE CHECKS FOR EQUILIBRIUM ITERATION     2


 AVERAGE FORCE                      1.017E+06   TIME AVG. FORCE       8.530E+05
 LARGEST RESIDUAL FORCE              64.1       AT NODE        300   DOF  2
   INSTANCE: BLOCK-1                                                                         
 LARGEST INCREMENT OF DISP.        -1.252E-03   AT NODE          7   DOF  2
   INSTANCE: BLOCK-1                                                                         
 LARGEST CORRECTION TO DISP.       -3.631E-05   AT NODE        395   DOF  2
   INSTANCE: BLOCK-1                                                                         
 ESTIMATE OF DISP.    CORRECTION   -2.037E-09
 FORCE     EQUILIB. ACCEPTED BASED ON SMALL RESIDUAL AND ESTIMATED CORRECTION

  MAXIMUM HALF-INCREMENT FORCE RESIDUAL IS  -1.263E+06 AND OCCURS AT NODE       1641 INSTANCE BLOCK-1                                                                         
          TIME INCREMENT MAY NOW INCREASE TO    1.523E-02

 ITERATION SUMMARY FOR THE INCREMENT:   2 TOTAL ITERATIONS, OF WHICH
   0 ARE SEVERE DISCONTINUITY ITERATIONS AND  2 ARE EQUILIBRIUM ITERATIONS.

 TIME INCREMENT COMPLETED  1.218E-02,  FRACTION OF STEP COMPLETED  0.319    
 STEP TIME COMPLETED       0.319    ,  TOTAL TIME COMPLETED         1.32    


  INCREMENT    13 STARTS. ATTEMPT NUMBER  1, TIME INCREMENT  1.523E-02

  NUMBER OF EQUATIONS =     3802     NUMBER OF FLOATING PT. OPERATIONS =  2.02E+07

     CHECK POINT   START OF SOLVER    

     CHECK POINT  END OF SOLVER       

       ELAPSED USER TIME (SEC)      =   0.0000    
       ELAPSED SYSTEM TIME (SEC)    =   0.0000    
       ELAPSED TOTAL CPU TIME (SEC) =   0.0000    
       ELAPSED WALLCLOCK TIME (SEC) =          0

               CONVERGENCE CHECKS FOR EQUILIBRIUM ITERATION     1


 AVERAGE FORCE                      1.073E+06   TIME AVG. FORCE       8.700E+05
 LARGEST RESIDUAL FORCE             1.135E+07   AT NODE         71   DOF  2
   INSTANCE: BLOCK-1                                                                         
 LARGEST INCREMENT OF DISP.        -1.724E-03   AT NODE         71   DOF  2
   INSTANCE: BLOCK-1                                                                         
 LARGEST CORRECTION TO DISP.       -1.044E-03   AT NODE         71   DOF  2
   INSTANCE: BLOCK-1                                                                         
          FORCE     EQUILIBRIUM NOT ACHIEVED WITHIN TOLERANCE.

  NUMBER OF EQUATIONS =     3802     NUMBER OF FLOATING PT. OPERATIONS =  2.02E+07

     CHECK POINT   START OF SOLVER    

     CHECK POINT  END OF SOLVER       

       ELAPSED USER TIME (SEC)      =  0.10000    
       ELAPSED SYSTEM TIME (SEC)    =   0.0000    
       ELAPSED TOTAL CPU TIME (SEC) =  0.10000    
       ELAPSED WALLCLOCK TIME (SEC) =          1

               CONVERGENCE CHECKS FOR EQUILIBRIUM ITERATION     2


 AVERAGE FORCE                      1.062E+06   TIME AVG. FORCE       8.691E+05
 LARGEST RESIDUAL FORCE            -1.646E+03   AT NODE        780   DOF  1
   INSTANCE: BLOCK-1                                                                         
 LARGEST INCREMENT OF DISP.        -1.349E-03   AT NODE       1482   DOF  2
   INSTANCE: BLOCK-1                                                                         
 LARGEST CORRECTION TO DISP.        7.719E-04   AT NODE         71   DOF  2
   INSTANCE: BLOCK-1                                                                         
 ESTIMATE OF DISP.    CORRECTION   -1.119E-07
 FORCE     EQUILIB. ACCEPTED BASED ON SMALL RESIDUAL AND ESTIMATED CORRECTION

  MAXIMUM HALF-INCREMENT FORCE RESIDUAL IS   1.843E+06 AND OCCURS AT NODE        625 INSTANCE BLOCK-1                                                                         
          TIME INCREMENT MAY NOW INCREASE TO    1.904E-02

 ITERATION SUMMARY FOR THE INCREMENT:   2 TOTAL ITERATIONS, OF WHICH
   0 ARE SEVERE DISCONTINUITY ITERATIONS AND  2 ARE EQUILIBRIUM ITERATIONS.

 TIME INCREMENT COMPLETED  1.523E-02,  FRACTION OF STEP COMPLETED  0.334    
 STEP TIME COMPLETED       0.334    ,  TOTAL TIME COMPLETED         1.33    


  INCREMENT    14 STARTS. ATTEMPT NUMBER  1, TIME INCREMENT  1.904E-02

  NUMBER OF EQUATIONS =     3802     NUMBER OF FLOATING PT. OPERATIONS =  2.02E+07

     CHECK POINT   START OF SOLVER    

     CHECK POINT  END OF SOLVER       

       ELAPSED USER TIME (SEC)      =   0.0000    
       ELAPSED SYSTEM TIME (SEC)    =   0.0000    
       ELAPSED TOTAL CPU TIME (SEC) =   0.0000    
       ELAPSED WALLCLOCK TIME (SEC) =          0

               CONVERGENCE CHECKS FOR EQUILIBRIUM ITERATION     1


 AVERAGE FORCE                      1.147E+06   TIME AVG. FORCE       8.889E+05
 LARGEST RESIDUAL FORCE             3.307E+07   AT NODE        561   DOF  2
   INSTANCE: BLOCK-1                                                                         
 LARGEST INCREMENT OF DISP.        -2.766E-03   AT NODE        561   DOF  2
   INSTANCE: BLOCK-1                                                                         
 LARGEST CORRECTION TO DISP.       -1.578E-03   AT NODE        561   DOF  2
   INSTANCE: BLOCK-1                                                                         
          FORCE     EQUILIBRIUM NOT ACHIEVED WITHIN TOLERANCE.

  NUMBER OF EQUATIONS =     3802     NUMBER OF FLOATING PT. OPERATIONS =  2.02E+07

     CHECK POINT   START OF SOLVER    

     CHECK POINT  END OF SOLVER       

       ELAPSED USER TIME (SEC)      =   0.0000    
       ELAPSED SYSTEM TIME (SEC)    =   0.0000    
       ELAPSED TOTAL CPU TIME (SEC) =   0.0000    
       ELAPSED WALLCLOCK TIME (SEC) =          0

               CONVERGENCE CHECKS FOR EQUILIBRIUM ITERATION     2


 AVERAGE FORCE                      1.131E+06   TIME AVG. FORCE       8.878E+05
 LARGEST RESIDUAL FORCE             5.109E+06   AT NODE        388   DOF  2
   INSTANCE: BLOCK-1                                                                         
 LARGEST INCREMENT OF DISP.        -1.752E-03   AT NODE        388   DOF  2
   INSTANCE: BLOCK-1                                                                         
 LARGEST CORRECTION TO DISP.       -1.279E-03   AT NODE        388   DOF  2
   INSTANCE: BLOCK-1                                                                         
          FORCE     EQUILIBRIUM NOT ACHIEVED WITHIN TOLERANCE.

  NUMBER OF EQUATIONS =     3802     NUMBER OF FLOATING PT. OPERATIONS =  2.02E+07

     CHECK POINT   START OF SOLVER    

     CHECK POINT  END OF SOLVER       

       ELAPSED USER TIME (SEC)      =  0.10000    
       ELAPSED SYSTEM TIME (SEC)    =   0.0000    
       ELAPSED TOTAL CPU TIME (SEC) =  0.10000    
       ELAPSED WALLCLOCK TIME (SEC) =          0

               CONVERGENCE CHECKS FOR EQUILIBRIUM ITERATION     3


 AVERAGE FORCE                      1.131E+06   TIME AVG. FORCE       8.878E+05
 LARGEST RESIDUAL FORCE             0.520       AT NODE        712   DOF  1
   INSTANCE: BLOCK-1                                                                         
 LARGEST INCREMENT OF DISP.        -1.648E-03   AT NODE       1186   DOF  2
   INSTANCE: BLOCK-1                                                                         
 LARGEST CORRECTION TO DISP.        2.611E-04   AT NODE        388   DOF  2
   INSTANCE: BLOCK-1                                                                         
 ESTIMATE OF DISP.    CORRECTION    2.656E-11
 FORCE     EQUILIB. ACCEPTED BASED ON SMALL RESIDUAL AND ESTIMATED CORRECTION

  MAXIMUM HALF-INCREMENT FORCE RESIDUAL IS  -2.701E+06 AND OCCURS AT NODE        563 INSTANCE BLOCK-1                                                                         
          TIME INCREMENT MAY NOW INCREASE TO    2.379E-02

 ITERATION SUMMARY FOR THE INCREMENT:   3 TOTAL ITERATIONS, OF WHICH
   0 ARE SEVERE DISCONTINUITY ITERATIONS AND  3 ARE EQUILIBRIUM ITERATIONS.

 TIME INCREMENT COMPLETED  1.904E-02,  FRACTION OF STEP COMPLETED  0.353    
 STEP TIME COMPLETED       0.353    ,  TOTAL TIME COMPLETED         1.35    


  INCREMENT    15 STARTS. ATTEMPT NUMBER  1, TIME INCREMENT  2.379E-02

  NUMBER OF EQUATIONS =     3802     NUMBER OF FLOATING PT. OPERATIONS =  2.02E+07

     CHECK POINT   START OF SOLVER    

     CHECK POINT  END OF SOLVER       

       ELAPSED USER TIME (SEC)      =   0.0000    
       ELAPSED SYSTEM TIME (SEC)    =   0.0000    
       ELAPSED TOTAL CPU TIME (SEC) =   0.0000    
       ELAPSED WALLCLOCK TIME (SEC) =          0

               CONVERGENCE CHECKS FOR EQUILIBRIUM ITERATION     1


 AVERAGE FORCE                      1.244E+06   TIME AVG. FORCE       9.115E+05
 LARGEST RESIDUAL FORCE             2.547E+07   AT NODE        388   DOF  2
   INSTANCE: BLOCK-1                                                                         
 LARGEST INCREMENT OF DISP.        -3.581E-03   AT NODE         61   DOF  2
   INSTANCE: BLOCK-1                                                                         
 LARGEST CORRECTION TO DISP.        2.088E-03   AT NODE         92   DOF  2
   INSTANCE: BLOCK-1                                                                         
          FORCE     EQUILIBRIUM NOT ACHIEVED WITHIN TOLERANCE.

  NUMBER OF EQUATIONS =     3802     NUMBER OF FLOATING PT. OPERATIONS =  2.02E+07

     CHECK POINT   START OF SOLVER    

     CHECK POINT  END OF SOLVER       

       ELAPSED USER TIME (SEC)      =  0.10000    
       ELAPSED SYSTEM TIME (SEC)    =   0.0000    
       ELAPSED TOTAL CPU TIME (SEC) =  0.10000    
       ELAPSED WALLCLOCK TIME (SEC) =          0

               CONVERGENCE CHECKS FOR EQUILIBRIUM ITERATION     2


 AVERAGE FORCE                      1.222E+06   TIME AVG. FORCE       9.100E+05
 LARGEST RESIDUAL FORCE             2.337E+07   AT NODE        659   DOF  2
   INSTANCE: BLOCK-1                                                                         
 LARGEST INCREMENT OF DISP.        -3.605E-03   AT NODE         38   DOF  2
   INSTANCE: BLOCK-1                                                                         
 LARGEST CORRECTION TO DISP.        3.861E-03   AT NODE        489   DOF  2
   INSTANCE: BLOCK-1                                                                         
          FORCE     EQUILIBRIUM NOT ACHIEVED WITHIN TOLERANCE.

  NUMBER OF EQUATIONS =     3802     NUMBER OF FLOATING PT. OPERATIONS =  2.02E+07

     CHECK POINT   START OF SOLVER    

     CHECK POINT  END OF SOLVER       

       ELAPSED USER TIME (SEC)      =  0.10000    
       ELAPSED SYSTEM TIME (SEC)    =   0.0000    
       ELAPSED TOTAL CPU TIME (SEC) =  0.10000    
       ELAPSED WALLCLOCK TIME (SEC) =          0

               CONVERGENCE CHECKS FOR EQUILIBRIUM ITERATION     3


 AVERAGE FORCE                      1.219E+06   TIME AVG. FORCE       9.099E+05
 LARGEST RESIDUAL FORCE             4.206E+06   AT NODE        434   DOF  2
   INSTANCE: BLOCK-1                                                                         
 LARGEST INCREMENT OF DISP.        -2.028E-03   AT NODE        827   DOF  2
   INSTANCE: BLOCK-1                                                                         
 LARGEST CORRECTION TO DISP.       -2.641E-03   AT NODE        489   DOF  2
   INSTANCE: BLOCK-1                                                                         
          FORCE     EQUILIBRIUM NOT ACHIEVED WITHIN TOLERANCE.

  NUMBER OF EQUATIONS =     3802     NUMBER OF FLOATING PT. OPERATIONS =  2.02E+07

     CHECK POINT   START OF SOLVER    

     CHECK POINT  END OF SOLVER       

       ELAPSED USER TIME (SEC)      =   0.0000    
       ELAPSED SYSTEM TIME (SEC)    =   0.0000    
       ELAPSED TOTAL CPU TIME (SEC) =   0.0000    
       ELAPSED WALLCLOCK TIME (SEC) =          0

               CONVERGENCE CHECKS FOR EQUILIBRIUM ITERATION     4


 AVERAGE FORCE                      1.219E+06   TIME AVG. FORCE       9.098E+05
 LARGEST RESIDUAL FORCE            -2.708E-03   AT NODE        661   DOF  2
   INSTANCE: BLOCK-1                                                                         
 LARGEST INCREMENT OF DISP.        -2.028E-03   AT NODE        827   DOF  2
   INSTANCE: BLOCK-1                                                                         
 LARGEST CORRECTION TO DISP.        3.224E-04   AT NODE        489   DOF  2
   INSTANCE: BLOCK-1                                                                         
          THE FORCE     EQUILIBRIUM EQUATIONS HAVE CONVERGED

  MAXIMUM HALF-INCREMENT FORCE RESIDUAL IS   4.096E+06 AND OCCURS AT NODE        563 INSTANCE BLOCK-1                                                                         
          TIME INCREMENT MAY NOW INCREASE TO    2.974E-02

 ITERATION SUMMARY FOR THE INCREMENT:   4 TOTAL ITERATIONS, OF WHICH
   0 ARE SEVERE DISCONTINUITY ITERATIONS AND  4 ARE EQUILIBRIUM ITERATIONS.

 TIME INCREMENT COMPLETED  2.379E-02,  FRACTION OF STEP COMPLETED  0.377    
 STEP TIME COMPLETED       0.377    ,  TOTAL TIME COMPLETED         1.38    


  INCREMENT    16 STARTS. ATTEMPT NUMBER  1, TIME INCREMENT  2.974E-02

  NUMBER OF EQUATIONS =     3802     NUMBER OF FLOATING PT. OPERATIONS =  2.02E+07

     CHECK POINT   START OF SOLVER    

     CHECK POINT  END OF SOLVER       

       ELAPSED USER TIME (SEC)      =   0.0000    
       ELAPSED SYSTEM TIME (SEC)    =   0.0000    
       ELAPSED TOTAL CPU TIME (SEC) =   0.0000    
       ELAPSED WALLCLOCK TIME (SEC) =          0
 

 ***WARNING: THE SYSTEM MATRIX HAS 4 NEGATIVE EIGENVALUES.
             EXPLANATIONS ARE SUGGESTED AFTER THE FIRST OCCURRENCE OF THIS MESSAGE.

               CONVERGENCE CHECKS FOR EQUILIBRIUM ITERATION     1


 AVERAGE FORCE                      1.572E+06   TIME AVG. FORCE       9.512E+05
 LARGEST RESIDUAL FORCE             2.064E+08   AT NODE        792   DOF  2
   INSTANCE: BLOCK-1                                                                         
 LARGEST INCREMENT OF DISP.        -1.641E-02   AT NODE         55   DOF  2
   INSTANCE: BLOCK-1                                                                         
 LARGEST CORRECTION TO DISP.       -1.469E-02   AT NODE         55   DOF  2
   INSTANCE: BLOCK-1                                                                         
          FORCE     EQUILIBRIUM NOT ACHIEVED WITHIN TOLERANCE.

  NUMBER OF EQUATIONS =     3802     NUMBER OF FLOATING PT. OPERATIONS =  2.02E+07

     CHECK POINT   START OF SOLVER    

     CHECK POINT  END OF SOLVER       

       ELAPSED USER TIME (SEC)      =  0.10000    
       ELAPSED SYSTEM TIME (SEC)    =   0.0000    
       ELAPSED TOTAL CPU TIME (SEC) =  0.10000    
       ELAPSED WALLCLOCK TIME (SEC) =          0
 

 ***WARNING: THE SYSTEM MATRIX HAS 1 NEGATIVE EIGENVALUES.
             EXPLANATIONS ARE SUGGESTED AFTER THE FIRST OCCURRENCE OF THIS MESSAGE.

 ***WARNING: THE PLASTICITY/CREEP/CONNECTOR FRICTION ALGORITHM DID NOT CONVERGE 
             AT 1 POINTS
 

 ***NOTE: MATERIAL CALCULATIONS FAILED TO CONVERGE OR WERE NOT ATTEMPTED AT ONE 
          OR MORE POINTS. CONVERGENCE IS JUDGED UNLIKELY.

 ***WARNING: CONVERGENCE JUDGED UNLIKELY.  INCREMENT WILL BE ATTEMPTED AGAIN 
             WITH A TIME INCREMENT OF 7.43594E-03


  INCREMENT    16 STARTS. ATTEMPT NUMBER  2, TIME INCREMENT  7.436E-03

  NUMBER OF EQUATIONS =     3802     NUMBER OF FLOATING PT. OPERATIONS =  2.02E+07

     CHECK POINT   START OF SOLVER    

     CHECK POINT  END OF SOLVER       

       ELAPSED USER TIME (SEC)      =   0.0000    
       ELAPSED SYSTEM TIME (SEC)    =   0.0000    
       ELAPSED TOTAL CPU TIME (SEC) =   0.0000    
       ELAPSED WALLCLOCK TIME (SEC) =          0

               CONVERGENCE CHECKS FOR EQUILIBRIUM ITERATION     1


 AVERAGE FORCE                      1.249E+06   TIME AVG. FORCE       9.311E+05
 LARGEST RESIDUAL FORCE             -436.       AT NODE          3   DOF  2
   INSTANCE: BLOCK-1                                                                         
 LARGEST INCREMENT OF DISP.        -6.456E-04   AT NODE        699   DOF  2
   INSTANCE: BLOCK-1                                                                         
 LARGEST CORRECTION TO DISP.       -5.637E-05   AT NODE          7   DOF  2
   INSTANCE: BLOCK-1                                                                         
 ESTIMATE OF DISP.    CORRECTION   -6.953E-09
 FORCE     EQUILIB. ACCEPTED BASED ON SMALL RESIDUAL AND ESTIMATED CORRECTION

  MAXIMUM HALF-INCREMENT FORCE RESIDUAL IS   3.982E+05 AND OCCURS AT NODE        625 INSTANCE BLOCK-1                                                                         
          TIME INCREMENT MAY NOW INCREASE TO    9.295E-03

 ITERATION SUMMARY FOR THE INCREMENT:   1 TOTAL ITERATIONS, OF WHICH
   0 ARE SEVERE DISCONTINUITY ITERATIONS AND  1 ARE EQUILIBRIUM ITERATIONS.

 TIME INCREMENT COMPLETED  7.436E-03,  FRACTION OF STEP COMPLETED  0.384    
 STEP TIME COMPLETED       0.384    ,  TOTAL TIME COMPLETED         1.38    


  INCREMENT    17 STARTS. ATTEMPT NUMBER  1, TIME INCREMENT  9.295E-03

  NUMBER OF EQUATIONS =     3802     NUMBER OF FLOATING PT. OPERATIONS =  2.02E+07

     CHECK POINT   START OF SOLVER    

     CHECK POINT  END OF SOLVER       

       ELAPSED USER TIME (SEC)      =   0.0000    
       ELAPSED SYSTEM TIME (SEC)    =   0.0000    
       ELAPSED TOTAL CPU TIME (SEC) =   0.0000    
       ELAPSED WALLCLOCK TIME (SEC) =          0

               CONVERGENCE CHECKS FOR EQUILIBRIUM ITERATION     1


 AVERAGE FORCE                      1.286E+06   TIME AVG. FORCE       9.519E+05
 LARGEST RESIDUAL FORCE            -6.519E-09   AT NODE        235   DOF  2
   INSTANCE: BLOCK-1                                                                         
 LARGEST INCREMENT OF DISP.        -8.078E-04   AT NODE         65   DOF  2
   INSTANCE: BLOCK-1                                                                         
 LARGEST CORRECTION TO DISP.        8.421E-05   AT NODE        468   DOF  2
   INSTANCE: BLOCK-1                                                                         
          THE FORCE     EQUILIBRIUM RESPONSE WAS LINEAR IN THIS INCREMENT

  MAXIMUM HALF-INCREMENT FORCE RESIDUAL IS  -7.198E+05 AND OCCURS AT NODE        563 INSTANCE BLOCK-1                                                                         
          TIME INCREMENT MAY NOW INCREASE TO    1.162E-02

 ITERATION SUMMARY FOR THE INCREMENT:   1 TOTAL ITERATIONS, OF WHICH
   0 ARE SEVERE DISCONTINUITY ITERATIONS AND  1 ARE EQUILIBRIUM ITERATIONS.

 TIME INCREMENT COMPLETED  9.295E-03,  FRACTION OF STEP COMPLETED  0.394    
 STEP TIME COMPLETED       0.394    ,  TOTAL TIME COMPLETED         1.39    


  INCREMENT    18 STARTS. ATTEMPT NUMBER  1, TIME INCREMENT  1.162E-02

  NUMBER OF EQUATIONS =     3802     NUMBER OF FLOATING PT. OPERATIONS =  2.02E+07

     CHECK POINT   START OF SOLVER    

     CHECK POINT  END OF SOLVER       

       ELAPSED USER TIME (SEC)      =  0.10000    
       ELAPSED SYSTEM TIME (SEC)    =   0.0000    
       ELAPSED TOTAL CPU TIME (SEC) =  0.10000    
       ELAPSED WALLCLOCK TIME (SEC) =          0

               CONVERGENCE CHECKS FOR EQUILIBRIUM ITERATION     1


 AVERAGE FORCE                      1.332E+06   TIME AVG. FORCE       9.730E+05
 LARGEST RESIDUAL FORCE            -4.227E+05   AT NODE        132   DOF  2
   INSTANCE: BLOCK-1                                                                         
 LARGEST INCREMENT OF DISP.        -9.850E-04   AT NODE        774   DOF  2
   INSTANCE: BLOCK-1                                                                         
 LARGEST CORRECTION TO DISP.        1.400E-04   AT NODE       1901   DOF  2
   INSTANCE: BLOCK-1                                                                         
          FORCE     EQUILIBRIUM NOT ACHIEVED WITHIN TOLERANCE.

  NUMBER OF EQUATIONS =     3802     NUMBER OF FLOATING PT. OPERATIONS =  2.02E+07

     CHECK POINT   START OF SOLVER    

     CHECK POINT  END OF SOLVER       

       ELAPSED USER TIME (SEC)      =  0.10000    
       ELAPSED SYSTEM TIME (SEC)    =   0.0000    
       ELAPSED TOTAL CPU TIME (SEC) =  0.10000    
       ELAPSED WALLCLOCK TIME (SEC) =          0

               CONVERGENCE CHECKS FOR EQUILIBRIUM ITERATION     2


 AVERAGE FORCE                      1.331E+06   TIME AVG. FORCE       9.730E+05
 LARGEST RESIDUAL FORCE             6.148E+03   AT NODE        729   DOF  2
   INSTANCE: BLOCK-1                                                                         
 LARGEST INCREMENT OF DISP.        -9.850E-04   AT NODE        774   DOF  2
   INSTANCE: BLOCK-1                                                                         
 LARGEST CORRECTION TO DISP.       -2.093E-05   AT NODE        132   DOF  2
   INSTANCE: BLOCK-1                                                                         
          FORCE     EQUILIBRIUM NOT ACHIEVED WITHIN TOLERANCE.

  NUMBER OF EQUATIONS =     3802     NUMBER OF FLOATING PT. OPERATIONS =  2.02E+07

     CHECK POINT   START OF SOLVER    

     CHECK POINT  END OF SOLVER       

       ELAPSED USER TIME (SEC)      =   0.0000    
       ELAPSED SYSTEM TIME (SEC)    =   0.0000    
       ELAPSED TOTAL CPU TIME (SEC) =   0.0000    
       ELAPSED WALLCLOCK TIME (SEC) =          0

               CONVERGENCE CHECKS FOR EQUILIBRIUM ITERATION     3


 AVERAGE FORCE                      1.331E+06   TIME AVG. FORCE       9.730E+05
 LARGEST RESIDUAL FORCE             -155.       AT NODE        132   DOF  1
   INSTANCE: BLOCK-1                                                                         
[...]
 LARGEST RESIDUAL FORCE            -1.860E+07   AT NODE          6   DOF  1
   INSTANCE: BLOCK-1                                                                         
 LARGEST INCREMENT OF DISP.         6.115E-03   AT NODE          6   DOF  2
   INSTANCE: BLOCK-1                                                                         
 LARGEST CORRECTION TO DISP.        4.178E-03   AT NODE          6   DOF  1
   INSTANCE: BLOCK-1                                                                         
          FORCE     EQUILIBRIUM NOT ACHIEVED WITHIN TOLERANCE.

  NUMBER OF EQUATIONS =     3802     NUMBER OF FLOATING PT. OPERATIONS =  2.02E+07

     CHECK POINT   START OF SOLVER    

     CHECK POINT  END OF SOLVER       

       ELAPSED USER TIME (SEC)      =   0.0000    
       ELAPSED SYSTEM TIME (SEC)    =   0.0000    
       ELAPSED TOTAL CPU TIME (SEC) =   0.0000    
       ELAPSED WALLCLOCK TIME (SEC) =          0

               CONVERGENCE CHECKS FOR EQUILIBRIUM ITERATION     3


 AVERAGE FORCE                      1.011E+06   TIME AVG. FORCE       1.298E+06
 LARGEST RESIDUAL FORCE            -3.449E+06   AT NODE          7   DOF  2
   INSTANCE: BLOCK-1                                                                         
 LARGEST INCREMENT OF DISP.         3.758E-03   AT NODE        404   DOF  2
   INSTANCE: BLOCK-1                                                                         
 LARGEST CORRECTION TO DISP.       -4.641E-03   AT NODE          6   DOF  1
   INSTANCE: BLOCK-1                                                                         
          FORCE     EQUILIBRIUM NOT ACHIEVED WITHIN TOLERANCE.

  NUMBER OF EQUATIONS =     3802     NUMBER OF FLOATING PT. OPERATIONS =  2.02E+07

     CHECK POINT   START OF SOLVER    

     CHECK POINT  END OF SOLVER       

       ELAPSED USER TIME (SEC)      =   0.0000    
       ELAPSED SYSTEM TIME (SEC)    =   0.0000    
       ELAPSED TOTAL CPU TIME (SEC) =   0.0000    
       ELAPSED WALLCLOCK TIME (SEC) =          0

               CONVERGENCE CHECKS FOR EQUILIBRIUM ITERATION     4


 AVERAGE FORCE                      1.012E+06   TIME AVG. FORCE       1.298E+06
 LARGEST RESIDUAL FORCE            -4.462E+06   AT NODE          6   DOF  1
   INSTANCE: BLOCK-1                                                                         
 LARGEST INCREMENT OF DISP.         3.654E-03   AT NODE          6   DOF  2
   INSTANCE: BLOCK-1                                                                         
 LARGEST CORRECTION TO DISP.        1.646E-03   AT NODE          6   DOF  2
   INSTANCE: BLOCK-1                                                                         
          FORCE     EQUILIBRIUM NOT ACHIEVED WITHIN TOLERANCE.

  NUMBER OF EQUATIONS =     3802     NUMBER OF FLOATING PT. OPERATIONS =  2.02E+07

     CHECK POINT   START OF SOLVER    

     CHECK POINT  END OF SOLVER       

       ELAPSED USER TIME (SEC)      =   0.0000    
       ELAPSED SYSTEM TIME (SEC)    =   0.0000    
       ELAPSED TOTAL CPU TIME (SEC) =   0.0000    
       ELAPSED WALLCLOCK TIME (SEC) =          0

               CONVERGENCE CHECKS FOR EQUILIBRIUM ITERATION     5


 AVERAGE FORCE                      1.011E+06   TIME AVG. FORCE       1.298E+06
 LARGEST RESIDUAL FORCE            -3.379E+06   AT NODE        405   DOF  1
   INSTANCE: BLOCK-1                                                                         
 LARGEST INCREMENT OF DISP.         3.689E-03   AT NODE          7   DOF  2
   INSTANCE: BLOCK-1                                                                         
 LARGEST CORRECTION TO DISP.        1.524E-03   AT NODE        405   DOF  1
   INSTANCE: BLOCK-1                                                                         
          FORCE     EQUILIBRIUM NOT ACHIEVED WITHIN TOLERANCE.

  NUMBER OF EQUATIONS =     3802     NUMBER OF FLOATING PT. OPERATIONS =  2.02E+07

     CHECK POINT   START OF SOLVER    

     CHECK POINT  END OF SOLVER       

       ELAPSED USER TIME (SEC)      =   0.0000    
       ELAPSED SYSTEM TIME (SEC)    =   0.0000    
       ELAPSED TOTAL CPU TIME (SEC) =   0.0000    
       ELAPSED WALLCLOCK TIME (SEC) =          0

               CONVERGENCE CHECKS FOR EQUILIBRIUM ITERATION     6


 AVERAGE FORCE                      1.012E+06   TIME AVG. FORCE       1.298E+06
 LARGEST RESIDUAL FORCE            -5.216E+06   AT NODE        405   DOF  2
   INSTANCE: BLOCK-1                                                                         
 LARGEST INCREMENT OF DISP.         4.087E-03   AT NODE          6   DOF  2
   INSTANCE: BLOCK-1                                                                         
 LARGEST CORRECTION TO DISP.       -1.971E-03   AT NODE        405   DOF  1
   INSTANCE: BLOCK-1                                                                         
          FORCE     EQUILIBRIUM NOT ACHIEVED WITHIN TOLERANCE.
 

 ***NOTE: THE SOLUTION APPEARS TO BE DIVERGING. CONVERGENCE IS JUDGED UNLIKELY.


  INCREMENT    40 STARTS. ATTEMPT NUMBER  2, TIME INCREMENT  1.008E-02

  NUMBER OF EQUATIONS =     3802     NUMBER OF FLOATING PT. OPERATIONS =  2.02E+07

     CHECK POINT   START OF SOLVER    

     CHECK POINT  END OF SOLVER       

       ELAPSED USER TIME (SEC)      =   0.0000    
       ELAPSED SYSTEM TIME (SEC)    =   0.0000    
       ELAPSED TOTAL CPU TIME (SEC) =   0.0000    
       ELAPSED WALLCLOCK TIME (SEC) =          0

               CONVERGENCE CHECKS FOR EQUILIBRIUM ITERATION     1


 AVERAGE FORCE                      1.137E+06   TIME AVG. FORCE       1.301E+06
 LARGEST RESIDUAL FORCE            -3.870E+04   AT NODE        763   DOF  2
   INSTANCE: BLOCK-1                                                                         
 LARGEST INCREMENT OF DISP.         8.680E-04   AT NODE        665   DOF  2
   INSTANCE: BLOCK-1                                                                         
 LARGEST CORRECTION TO DISP.        4.779E-05   AT NODE        406   DOF  1
   INSTANCE: BLOCK-1                                                                         
          FORCE     EQUILIBRIUM NOT ACHIEVED WITHIN TOLERANCE.

  NUMBER OF EQUATIONS =     3802     NUMBER OF FLOATING PT. OPERATIONS =  2.02E+07

     CHECK POINT   START OF SOLVER    

     CHECK POINT  END OF SOLVER       

       ELAPSED USER TIME (SEC)      =   0.0000    
       ELAPSED SYSTEM TIME (SEC)    =   0.0000    
       ELAPSED TOTAL CPU TIME (SEC) =   0.0000    
       ELAPSED WALLCLOCK TIME (SEC) =          0

               CONVERGENCE CHECKS FOR EQUILIBRIUM ITERATION     2


 AVERAGE FORCE                      1.137E+06   TIME AVG. FORCE       1.301E+06
 LARGEST RESIDUAL FORCE            -0.133       AT NODE        178   DOF  2
   INSTANCE: BLOCK-1                                                                         
 LARGEST INCREMENT OF DISP.         8.680E-04   AT NODE        665   DOF  2
   INSTANCE: BLOCK-1                                                                         
 LARGEST CORRECTION TO DISP.       -9.042E-07   AT NODE        763   DOF  2
   INSTANCE: BLOCK-1                                                                         
          THE FORCE     EQUILIBRIUM EQUATIONS HAVE CONVERGED

  MAXIMUM HALF-INCREMENT FORCE RESIDUAL IS  -1.559E+05 AND OCCURS AT NODE        628 INSTANCE BLOCK-1                                                                         

 ITERATION SUMMARY FOR THE INCREMENT:   2 TOTAL ITERATIONS, OF WHICH
   0 ARE SEVERE DISCONTINUITY ITERATIONS AND  2 ARE EQUILIBRIUM ITERATIONS.

 TIME INCREMENT COMPLETED  1.008E-02,  FRACTION OF STEP COMPLETED  0.947    
 STEP TIME COMPLETED       0.947    ,  TOTAL TIME COMPLETED         1.95    


  INCREMENT    41 STARTS. ATTEMPT NUMBER  1, TIME INCREMENT  1.008E-02

  NUMBER OF EQUATIONS =     3802     NUMBER OF FLOATING PT. OPERATIONS =  2.02E+07

     CHECK POINT   START OF SOLVER    

     CHECK POINT  END OF SOLVER       

       ELAPSED USER TIME (SEC)      =   0.0000    
       ELAPSED SYSTEM TIME (SEC)    =   0.0000    
       ELAPSED TOTAL CPU TIME (SEC) =   0.0000    
       ELAPSED WALLCLOCK TIME (SEC) =          0

               CONVERGENCE CHECKS FOR EQUILIBRIUM ITERATION     1


 AVERAGE FORCE                      1.095E+06   TIME AVG. FORCE       1.296E+06
 LARGEST RESIDUAL FORCE             3.616E+04   AT NODE        500   DOF  2
   INSTANCE: BLOCK-1                                                                         
 LARGEST INCREMENT OF DISP.         8.441E-04   AT NODE         61   DOF  2
   INSTANCE: BLOCK-1                                                                         
 LARGEST CORRECTION TO DISP.        3.746E-05   AT NODE        406   DOF  2
   INSTANCE: BLOCK-1                                                                         
          FORCE     EQUILIBRIUM NOT ACHIEVED WITHIN TOLERANCE.

  NUMBER OF EQUATIONS =     3802     NUMBER OF FLOATING PT. OPERATIONS =  2.02E+07

     CHECK POINT   START OF SOLVER    

     CHECK POINT  END OF SOLVER       

       ELAPSED USER TIME (SEC)      =   0.0000    
       ELAPSED SYSTEM TIME (SEC)    =   0.0000    
       ELAPSED TOTAL CPU TIME (SEC) =   0.0000    
       ELAPSED WALLCLOCK TIME (SEC) =          0

               CONVERGENCE CHECKS FOR EQUILIBRIUM ITERATION     2


 AVERAGE FORCE                      1.095E+06   TIME AVG. FORCE       1.296E+06
 LARGEST RESIDUAL FORCE            -0.145       AT NODE          4   DOF  1
   INSTANCE: BLOCK-1                                                                         
 LARGEST INCREMENT OF DISP.         8.441E-04   AT NODE         61   DOF  2
   INSTANCE: BLOCK-1                                                                         
 LARGEST CORRECTION TO DISP.       -1.002E-06   AT NODE        764   DOF  2
   INSTANCE: BLOCK-1                                                                         
          THE FORCE     EQUILIBRIUM EQUATIONS HAVE CONVERGED

  MAXIMUM HALF-INCREMENT FORCE RESIDUAL IS   1.042E+05 AND OCCURS AT NODE       1047 INSTANCE BLOCK-1                                                                         
          TIME INCREMENT MAY NOW INCREASE TO    1.260E-02

 ITERATION SUMMARY FOR THE INCREMENT:   2 TOTAL ITERATIONS, OF WHICH
   0 ARE SEVERE DISCONTINUITY ITERATIONS AND  2 ARE EQUILIBRIUM ITERATIONS.

 TIME INCREMENT COMPLETED  1.008E-02,  FRACTION OF STEP COMPLETED  0.957    
 STEP TIME COMPLETED       0.957    ,  TOTAL TIME COMPLETED         1.96    


  INCREMENT    42 STARTS. ATTEMPT NUMBER  1, TIME INCREMENT  1.260E-02

  NUMBER OF EQUATIONS =     3802     NUMBER OF FLOATING PT. OPERATIONS =  2.02E+07

     CHECK POINT   START OF SOLVER    

     CHECK POINT  END OF SOLVER       

       ELAPSED USER TIME (SEC)      =  0.10000    
       ELAPSED SYSTEM TIME (SEC)    =   0.0000    
       ELAPSED TOTAL CPU TIME (SEC) =  0.10000    
       ELAPSED WALLCLOCK TIME (SEC) =          0

               CONVERGENCE CHECKS FOR EQUILIBRIUM ITERATION     1


 AVERAGE FORCE                      1.040E+06   TIME AVG. FORCE       1.290E+06
 LARGEST RESIDUAL FORCE            -1.495E+04   AT NODE       1050   DOF  1
   INSTANCE: BLOCK-1                                                                         
 LARGEST INCREMENT OF DISP.         1.085E-03   AT NODE         62   DOF  2
   INSTANCE: BLOCK-1                                                                         
 LARGEST CORRECTION TO DISP.       -5.651E-05   AT NODE          8   DOF  2
   INSTANCE: BLOCK-1                                                                         
          FORCE     EQUILIBRIUM NOT ACHIEVED WITHIN TOLERANCE.

  NUMBER OF EQUATIONS =     3802     NUMBER OF FLOATING PT. OPERATIONS =  2.02E+07

     CHECK POINT   START OF SOLVER    

     CHECK POINT  END OF SOLVER       

       ELAPSED USER TIME (SEC)      =  0.10000    
       ELAPSED SYSTEM TIME (SEC)    =   0.0000    
       ELAPSED TOTAL CPU TIME (SEC) =  0.10000    
       ELAPSED WALLCLOCK TIME (SEC) =          0

               CONVERGENCE CHECKS FOR EQUILIBRIUM ITERATION     2


 AVERAGE FORCE                      1.040E+06   TIME AVG. FORCE       1.290E+06
 LARGEST RESIDUAL FORCE              1.51       AT NODE       1659   DOF  2
   INSTANCE: BLOCK-1                                                                         
 LARGEST INCREMENT OF DISP.         1.085E-03   AT NODE         62   DOF  2
   INSTANCE: BLOCK-1                                                                         
 LARGEST CORRECTION TO DISP.       -5.180E-07   AT NODE       1050   DOF  1
   INSTANCE: BLOCK-1                                                                         
          THE FORCE     EQUILIBRIUM EQUATIONS HAVE CONVERGED

  MAXIMUM HALF-INCREMENT FORCE RESIDUAL IS   2.290E+05 AND OCCURS AT NODE        628 INSTANCE BLOCK-1                                                                         
          TIME INCREMENT MAY NOW INCREASE TO    1.575E-02

 ITERATION SUMMARY FOR THE INCREMENT:   2 TOTAL ITERATIONS, OF WHICH
   0 ARE SEVERE DISCONTINUITY ITERATIONS AND  2 ARE EQUILIBRIUM ITERATIONS.

 TIME INCREMENT COMPLETED  1.260E-02,  FRACTION OF STEP COMPLETED  0.970    
 STEP TIME COMPLETED       0.970    ,  TOTAL TIME COMPLETED         1.97    


  INCREMENT    43 STARTS. ATTEMPT NUMBER  1, TIME INCREMENT  1.575E-02

  NUMBER OF EQUATIONS =     3802     NUMBER OF FLOATING PT. OPERATIONS =  2.02E+07

     CHECK POINT   START OF SOLVER    

     CHECK POINT  END OF SOLVER       

       ELAPSED USER TIME (SEC)      =  0.10000    
       ELAPSED SYSTEM TIME (SEC)    =   0.0000    
       ELAPSED TOTAL CPU TIME (SEC) =  0.10000    
       ELAPSED WALLCLOCK TIME (SEC) =          0

               CONVERGENCE CHECKS FOR EQUILIBRIUM ITERATION     1


 AVERAGE FORCE                      9.686E+05   TIME AVG. FORCE       1.282E+06
 LARGEST RESIDUAL FORCE             1.105E+05   AT NODE        732   DOF  1
   INSTANCE: BLOCK-1                                                                         
 LARGEST INCREMENT OF DISP.         1.437E-03   AT NODE         65   DOF  2
   INSTANCE: BLOCK-1                                                                         
 LARGEST CORRECTION TO DISP.       -9.697E-05   AT NODE          9   DOF  1
   INSTANCE: BLOCK-1                                                                         
          FORCE     EQUILIBRIUM NOT ACHIEVED WITHIN TOLERANCE.

  NUMBER OF EQUATIONS =     3802     NUMBER OF FLOATING PT. OPERATIONS =  2.02E+07

     CHECK POINT   START OF SOLVER    

     CHECK POINT  END OF SOLVER       

       ELAPSED USER TIME (SEC)      =  0.10000    
       ELAPSED SYSTEM TIME (SEC)    =   0.0000    
       ELAPSED TOTAL CPU TIME (SEC) =  0.10000    
       ELAPSED WALLCLOCK TIME (SEC) =          0

               CONVERGENCE CHECKS FOR EQUILIBRIUM ITERATION     2


 AVERAGE FORCE                      9.687E+05   TIME AVG. FORCE       1.282E+06
 LARGEST RESIDUAL FORCE              18.5       AT NODE        504   DOF  1
   INSTANCE: BLOCK-1                                                                         
 LARGEST INCREMENT OF DISP.         1.437E-03   AT NODE         65   DOF  2
   INSTANCE: BLOCK-1                                                                         
 LARGEST CORRECTION TO DISP.       -5.920E-06   AT NODE        661   DOF  1
   INSTANCE: BLOCK-1                                                                         
          THE FORCE     EQUILIBRIUM EQUATIONS HAVE CONVERGED

  MAXIMUM HALF-INCREMENT FORCE RESIDUAL IS  -2.893E+05 AND OCCURS AT NODE        516 INSTANCE BLOCK-1                                                                         

 ITERATION SUMMARY FOR THE INCREMENT:   2 TOTAL ITERATIONS, OF WHICH
   0 ARE SEVERE DISCONTINUITY ITERATIONS AND  2 ARE EQUILIBRIUM ITERATIONS.

 TIME INCREMENT COMPLETED  1.575E-02,  FRACTION OF STEP COMPLETED  0.986    
 STEP TIME COMPLETED       0.986    ,  TOTAL TIME COMPLETED         1.99    


  INCREMENT    44 STARTS. ATTEMPT NUMBER  1, TIME INCREMENT  1.421E-02

  NUMBER OF EQUATIONS =     3802     NUMBER OF FLOATING PT. OPERATIONS =  2.02E+07

     CHECK POINT   START OF SOLVER    

     CHECK POINT  END OF SOLVER       

       ELAPSED USER TIME (SEC)      =   0.0000    
       ELAPSED SYSTEM TIME (SEC)    =   0.0000    
       ELAPSED TOTAL CPU TIME (SEC) =   0.0000    
       ELAPSED WALLCLOCK TIME (SEC) =          0

               CONVERGENCE CHECKS FOR EQUILIBRIUM ITERATION     1


 AVERAGE FORCE                      9.060E+05   TIME AVG. FORCE       1.274E+06
 LARGEST RESIDUAL FORCE             3.737E+04   AT NODE          7   DOF  1
   INSTANCE: BLOCK-1                                                                         
 LARGEST INCREMENT OF DISP.         1.322E-03   AT NODE         64   DOF  2
   INSTANCE: BLOCK-1                                                                         
 LARGEST CORRECTION TO DISP.        7.093E-05   AT NODE          8   DOF  2
   INSTANCE: BLOCK-1                                                                         
          FORCE     EQUILIBRIUM NOT ACHIEVED WITHIN TOLERANCE.

  NUMBER OF EQUATIONS =     3802     NUMBER OF FLOATING PT. OPERATIONS =  2.02E+07

     CHECK POINT   START OF SOLVER    

     CHECK POINT  END OF SOLVER       

       ELAPSED USER TIME (SEC)      =  0.10000    
       ELAPSED SYSTEM TIME (SEC)    =   0.0000    
       ELAPSED TOTAL CPU TIME (SEC) =  0.10000    
       ELAPSED WALLCLOCK TIME (SEC) =          0

               CONVERGENCE CHECKS FOR EQUILIBRIUM ITERATION     2


 AVERAGE FORCE                      9.057E+05   TIME AVG. FORCE       1.274E+06
 LARGEST RESIDUAL FORCE             -298.       AT NODE          4   DOF  1
   INSTANCE: BLOCK-1                                                                         
 LARGEST INCREMENT OF DISP.         1.322E-03   AT NODE         64   DOF  2
   INSTANCE: BLOCK-1                                                                         
 LARGEST CORRECTION TO DISP.       -1.833E-06   AT NODE          4   DOF  1
   INSTANCE: BLOCK-1                                                                         
          THE FORCE     EQUILIBRIUM EQUATIONS HAVE CONVERGED

  MAXIMUM HALF-INCREMENT FORCE RESIDUAL IS  -1.841E+05 AND OCCURS AT NODE        520 INSTANCE BLOCK-1                                                                         

 ITERATION SUMMARY FOR THE INCREMENT:   2 TOTAL ITERATIONS, OF WHICH
   0 ARE SEVERE DISCONTINUITY ITERATIONS AND  2 ARE EQUILIBRIUM ITERATIONS.

 TIME INCREMENT COMPLETED  1.421E-02,  FRACTION OF STEP COMPLETED   1.00    
 STEP TIME COMPLETED        1.00    ,  TOTAL TIME COMPLETED         2.00    


          THE ANALYSIS HAS BEEN COMPLETED



     ANALYSIS SUMMARY:
     TOTAL OF         45  INCREMENTS
                       8  CUTBACKS IN AUTOMATIC INCREMENTATION
                     141  ITERATIONS INCLUDING CONTACT ITERATIONS IF PRESENT
                     143  PASSES THROUGH THE EQUATION SOLVER OF WHICH 
                     143  INVOLVE MATRIX DECOMPOSITION, INCLUDING
                       2  DECOMPOSITION(S) OF THE MASS MATRIX
                       1  REORDERING OF EQUATIONS TO MINIMIZE WAVEFRONT
                       0  ADDITIONAL RESIDUAL EVALUATIONS FOR LINE SEARCHES
                       0  ADDITIONAL OPERATOR EVALUATIONS FOR LINE SEARCHES
                       4  WARNING MESSAGES DURING USER INPUT PROCESSING
                      24  WARNING MESSAGES DURING ANALYSIS
                       0  ANALYSIS WARNINGS ARE NUMERICAL PROBLEM MESSAGES
                      14  ANALYSIS WARNINGS ARE NEGATIVE EIGENVALUE MESSAGES
                       0  ERROR MESSAGES



     JOB TIME SUMMARY
       USER TIME (SEC)      =   23.800    
       SYSTEM TIME (SEC)    =   1.0000    
       TOTAL CPU TIME (SEC) =   24.800    
       WALLCLOCK TIME (SEC) =         27
