1

   Abaqus 6.13-1                                  Date 07-Dec-2015   Time 15:02:59
   For use by  under license from Dassault Systemes or its subsidiary.

                                                                                 
                                                                                 
 STEP    1     INCREMENT     1     STEP TIME    0.00    


                        S T E P       1     S T A T I C   A N A L Y S I S


                                                                                          

     AUTOMATIC TIME CONTROL WITH -
          A SUGGESTED INITIAL TIME INCREMENT OF                0.100    
          AND A TOTAL TIME PERIOD OF                            10.0    
          THE MINIMUM TIME INCREMENT ALLOWED IS                1.000E-03
          THE MAXIMUM TIME INCREMENT ALLOWED IS                0.100    

     LINEAR EQUATION SOLVER TYPE         DIRECT SPARSE

 CONVERGENCE TOLERANCE PARAMETERS FOR FORCE    
     CRITERION FOR RESIDUAL FORCE     FOR A NONLINEAR PROBLEM          5.000E-03
     CRITERION FOR DISP.    CORRECTION IN A NONLINEAR PROBLEM          1.000E-02
     INITIAL VALUE OF TIME AVERAGE FORCE                               1.000E-02
     AVERAGE FORCE     IS TIME AVERAGE FORCE    
     ALTERNATE CRIT. FOR RESIDUAL FORCE     FOR A NONLINEAR PROBLEM    2.000E-02
     CRITERION FOR ZERO FORCE     RELATIVE TO TIME AVRG. FORCE         1.000E-05
     CRITERION FOR RESIDUAL FORCE     WHEN THERE IS ZERO FLUX          1.000E-05
     CRITERION FOR DISP.    CORRECTION WHEN THERE IS ZERO FLUX         1.000E-03
     CRITERION FOR RESIDUAL FORCE     FOR A LINEAR INCREMENT           1.000E-08
     FIELD CONVERSION RATIO                                             1.00    
     CRITERION FOR ZERO FORCE     REL. TO TIME AVRG. MAX. FORCE        1.000E-05
     CRITERION FOR ZERO DISP.    RELATIVE TO CHARACTERISTIC LENGTH     1.000E-08

     VOLUMETRIC STRAIN COMPATIBILITY TOLERANCE FOR HYBRID SOLIDS       1.000E-05
     AXIAL STRAIN COMPATIBILITY TOLERANCE FOR HYBRID BEAMS             1.000E-05
     TRANS. SHEAR STRAIN COMPATIBILITY TOLERANCE FOR HYBRID BEAMS      1.000E-05
     SOFT CONTACT CONSTRAINT COMPATIBILITY TOLERANCE FOR P>P0          5.000E-03
     SOFT CONTACT CONSTRAINT COMPATIBILITY TOLERANCE FOR P=0.0         0.100    
     CONTACT FORCE ERROR TOLERANCE FOR CONVERT SDI=YES                 1.00    
     DISPLACEMENT COMPATIBILITY TOLERANCE FOR DCOUP ELEMENTS           1.000E-05
     ROTATION COMPATIBILITY TOLERANCE FOR DCOUP ELEMENTS               1.000E-05

 EQUILIBRIUM WILL BE CHECKED FOR SEVERE DISCONTINUITY ITERATIONS

 TIME INCREMENTATION CONTROL PARAMETERS:
     FIRST EQUILIBRIUM ITERATION FOR CONSECUTIVE DIVERGENCE CHECK              4
     EQUILIBRIUM ITERATION AT WHICH LOG. CONVERGENCE RATE CHECK BEGINS         8
     EQUILIBRIUM ITERATION AFTER WHICH ALTERNATE RESIDUAL IS USED              9
     MAXIMUM EQUILIBRIUM ITERATIONS ALLOWED                                   16
     EQUILIBRIUM ITERATION COUNT FOR CUT-BACK IN NEXT INCREMENT               10
     MAXIMUM EQUILIB. ITERS IN TWO INCREMENTS FOR TIME INCREMENT INCREASE      4
     MAXIMUM ITERATIONS FOR SEVERE DISCONTINUITIES                            50
     MAXIMUM CUT-BACKS ALLOWED IN AN INCREMENT                                 5
     MAXIMUM DISCON. ITERS IN TWO INCREMENTS FOR TIME INCREMENT INCREASE      50
     MAXIMUM CONTACT AUGMENTATIONS FOR *SURFACE BEHAVIOR,AUGMENTED LAGRANGE   50
     CUT-BACK FACTOR AFTER DIVERGENCE                                 0.2500    
     CUT-BACK FACTOR FOR TOO SLOW CONVERGENCE                         0.5000    
     CUT-BACK FACTOR AFTER TOO MANY EQUILIBRIUM ITERATIONS            0.7500    
     CUT-BACK FACTOR AFTER TOO MANY SEVERE DISCONTINUITY ITERATIONS   0.2500    
     CUT-BACK FACTOR AFTER PROBLEMS IN ELEMENT ASSEMBLY               0.2500    
     INCREASE FACTOR AFTER TWO INCREMENTS THAT CONVERGE QUICKLY        1.500    
     MAX. TIME INCREMENT INCREASE FACTOR ALLOWED                       1.500    
     MAX. TIME INCREMENT INCREASE FACTOR ALLOWED (DYNAMICS)            1.250    
     MAX. TIME INCREMENT INCREASE FACTOR ALLOWED (DIFFUSION)           2.000    
     MINIMUM TIME INCREMENT RATIO FOR EXTRAPOLATION TO OCCUR          0.1000    
     MAX. RATIO OF TIME INCREMENT TO STABILITY LIMIT                   1.000    
     FRACTION OF STABILITY LIMIT FOR NEW TIME INCREMENT               0.9500    
     TIME INCREMENT INCREASE FACTOR BEFORE A TIME POINT                1.000    
     GLOBAL STABILIZATION CONTROL IS NOT USED

          PRINT OF INCREMENT NUMBER, TIME, ETC., EVERY    1  INCREMENTS

     THE MAXIMUM NUMBER OF INCREMENTS IN THIS STEP IS                    1000

          LARGE DISPLACEMENT THEORY WILL BE USED

          UNSYMMETRIC MATRIX STORAGE AND SOLUTION WILL BE USED

     LINEAR EXTRAPOLATION WILL BE USED

     CHARACTERISTIC ELEMENT LENGTH      10.0    

     DETAILS REGARDING ACTUAL SOLUTION WAVEFRONT REQUESTED

     DETAILED OUTPUT OF DIAGNOSTICS TO DATABASE REQUESTED

     PRINT OF INCREMENT NUMBER, TIME, ETC., TO THE MESSAGE FILE EVERY     1  INCREMENTS

     EQUATIONS ARE BEING REORDERED TO MINIMIZE WAVEFRONT

     COLLECTING MODEL CONSTRAINT INFORMATION FOR OVERCONSTRAINT CHECKS

     COLLECTING STEP CONSTRAINT INFORMATION FOR OVERCONSTRAINT CHECKS


  INCREMENT     1 STARTS. ATTEMPT NUMBER  1, TIME INCREMENT  0.100    

  NUMBER OF EQUATIONS =        8     NUMBER OF FLOATING PT. OPERATIONS =  3.52E+02

     CHECK POINT   START OF SOLVER    

     CHECK POINT  END OF SOLVER       

       ELAPSED USER TIME (SEC)      =   0.0000    
       ELAPSED SYSTEM TIME (SEC)    =   0.0000    
       ELAPSED TOTAL CPU TIME (SEC) =   0.0000    
       ELAPSED WALLCLOCK TIME (SEC) =          0
 

 ***WARNING: SOLVER PROBLEM. NUMERICAL SINGULARITY WHEN PROCESSING NODE 
             BLOCK-1.3 D.O.F. 1 RATIO = 1.50297E+15.

               CONVERGENCE CHECKS FOR EQUILIBRIUM ITERATION     1


 AVERAGE FORCE                      3.907E+06   TIME AVG. FORCE       3.907E+06
 LARGEST RESIDUAL FORCE             -130.       AT NODE          1   DOF  1
   INSTANCE: BLOCK-1                                                                         
 LARGEST INCREMENT OF DISP.        -1.000E-03   AT NODE          1   DOF  2
   INSTANCE: BLOCK-1                                                                         
 LARGEST CORRECTION TO DISP.       -1.000E-03   AT NODE          1   DOF  2
   INSTANCE: BLOCK-1                                                                         
          DISP.    CORRECTION TOO LARGE COMPARED TO DISP.    INCREMENT

  NUMBER OF EQUATIONS =        8     NUMBER OF FLOATING PT. OPERATIONS =  3.52E+02

     CHECK POINT   START OF SOLVER    

     CHECK POINT  END OF SOLVER       

       ELAPSED USER TIME (SEC)      =   0.0000    
       ELAPSED SYSTEM TIME (SEC)    =   0.0000    
       ELAPSED TOTAL CPU TIME (SEC) =   0.0000    
       ELAPSED WALLCLOCK TIME (SEC) =          0

 ***WARNING: SOLVER PROBLEM.  ZERO PIVOT WHEN PROCESSING NODE 3 INSTANCE 
             BLOCK-1 D.O.F. 1
  Typically a zero pivot is associated with an overconstraint in the model. 
 However, Abaqus was not able to indentify any chains of constraints that might 
 lead to an overconstraint at this node. This suggests that the model might be 
 in fact insufficiently constrained in this particular degree of freedom. 
 Please check the constraints used in this model. 


 ***WARNING: Solver problem. Zero pivot when processing D.O.F. 1 of 1 nodes. 
             The nodes have been identified in node set 
             WarnNodeSolvProbZeroPiv_1_1_1_2_1.

               CONVERGENCE CHECKS FOR EQUILIBRIUM ITERATION     2


 AVERAGE FORCE                      3.907E+06   TIME AVG. FORCE       3.907E+06
 LARGEST RESIDUAL FORCE            -1.225E-07   AT NODE          1   DOF  1
   INSTANCE: BLOCK-1                                                                         
 LARGEST INCREMENT OF DISP.        -1.000E-03   AT NODE          1   DOF  2
   INSTANCE: BLOCK-1                                                                         
 LARGEST CORRECTION TO DISP.       -1.564E-08   AT NODE          1   DOF  1
   INSTANCE: BLOCK-1                                                                         
          THE FORCE     EQUILIBRIUM EQUATIONS HAVE CONVERGED

 ITERATION SUMMARY FOR THE INCREMENT:   2 TOTAL ITERATIONS, OF WHICH
   0 ARE SEVERE DISCONTINUITY ITERATIONS AND  2 ARE EQUILIBRIUM ITERATIONS.

 TIME INCREMENT COMPLETED  0.100    ,  FRACTION OF STEP COMPLETED  1.000E-02
 STEP TIME COMPLETED       0.100    ,  TOTAL TIME COMPLETED        0.100    


  INCREMENT     2 STARTS. ATTEMPT NUMBER  1, TIME INCREMENT  0.100    

  NUMBER OF EQUATIONS =        8     NUMBER OF FLOATING PT. OPERATIONS =  3.52E+02

     CHECK POINT   START OF SOLVER    

     CHECK POINT  END OF SOLVER       

       ELAPSED USER TIME (SEC)      =   0.0000    
       ELAPSED SYSTEM TIME (SEC)    =   0.0000    
       ELAPSED TOTAL CPU TIME (SEC) =   0.0000    
       ELAPSED WALLCLOCK TIME (SEC) =          0
 

 ***WARNING: SOLVER PROBLEM. NUMERICAL SINGULARITY WHEN PROCESSING NODE 
             BLOCK-1.3 D.O.F. 1 RATIO = 2.00366E+15.

               CONVERGENCE CHECKS FOR EQUILIBRIUM ITERATION     1


 AVERAGE FORCE                      1.563E+07   TIME AVG. FORCE       9.767E+06
 LARGEST RESIDUAL FORCE             3.672E-07   AT NODE          1   DOF  1
   INSTANCE: BLOCK-1                                                                         
 LARGEST INCREMENT OF DISP.        -1.000E-03   AT NODE          1   DOF  2
   INSTANCE: BLOCK-1                                                                         
 LARGEST CORRECTION TO DISP.       -2.631E-08   AT NODE          2   DOF  1
   INSTANCE: BLOCK-1                                                                         
          THE FORCE     EQUILIBRIUM RESPONSE WAS LINEAR IN THIS INCREMENT

 ITERATION SUMMARY FOR THE INCREMENT:   1 TOTAL ITERATIONS, OF WHICH
   0 ARE SEVERE DISCONTINUITY ITERATIONS AND  1 ARE EQUILIBRIUM ITERATIONS.

 TIME INCREMENT COMPLETED  0.100    ,  FRACTION OF STEP COMPLETED  2.000E-02
 STEP TIME COMPLETED       0.200    ,  TOTAL TIME COMPLETED        0.200    


  INCREMENT     3 STARTS. ATTEMPT NUMBER  1, TIME INCREMENT  0.100    

  NUMBER OF EQUATIONS =        8     NUMBER OF FLOATING PT. OPERATIONS =  3.52E+02

     CHECK POINT   START OF SOLVER    

     CHECK POINT  END OF SOLVER       

       ELAPSED USER TIME (SEC)      =   0.0000    
       ELAPSED SYSTEM TIME (SEC)    =   0.0000    
       ELAPSED TOTAL CPU TIME (SEC) =   0.0000    
       ELAPSED WALLCLOCK TIME (SEC) =          0
 

 ***WARNING: SOLVER PROBLEM. NUMERICAL SINGULARITY WHEN PROCESSING NODE 
             BLOCK-1.3 D.O.F. 1 RATIO = 2.00348E+15.

               CONVERGENCE CHECKS FOR EQUILIBRIUM ITERATION     1


 AVERAGE FORCE                      2.344E+07   TIME AVG. FORCE       1.433E+07
 LARGEST RESIDUAL FORCE             3.678E-07   AT NODE          1   DOF  1
   INSTANCE: BLOCK-1                                                                         
 LARGEST INCREMENT OF DISP.        -1.000E-03   AT NODE          1   DOF  2
   INSTANCE: BLOCK-1                                                                         
 LARGEST CORRECTION TO DISP.        2.484E-08   AT NODE          3   DOF  1
   INSTANCE: BLOCK-1                                                                         
          THE FORCE     EQUILIBRIUM RESPONSE WAS LINEAR IN THIS INCREMENT

 ITERATION SUMMARY FOR THE INCREMENT:   1 TOTAL ITERATIONS, OF WHICH
   0 ARE SEVERE DISCONTINUITY ITERATIONS AND  1 ARE EQUILIBRIUM ITERATIONS.

 TIME INCREMENT COMPLETED  0.100    ,  FRACTION OF STEP COMPLETED  3.000E-02
 STEP TIME COMPLETED       0.300    ,  TOTAL TIME COMPLETED        0.300    


  INCREMENT     4 STARTS. ATTEMPT NUMBER  1, TIME INCREMENT  0.100    

  NUMBER OF EQUATIONS =        8     NUMBER OF FLOATING PT. OPERATIONS =  3.52E+02

     CHECK POINT   START OF SOLVER    

     CHECK POINT  END OF SOLVER       

       ELAPSED USER TIME (SEC)      =   0.0000    
       ELAPSED SYSTEM TIME (SEC)    =   0.0000    
       ELAPSED TOTAL CPU TIME (SEC) =   0.0000    
       ELAPSED WALLCLOCK TIME (SEC) =          0
 

 ***WARNING: SOLVER PROBLEM. NUMERICAL SINGULARITY WHEN PROCESSING NODE 
             BLOCK-1.3 D.O.F. 1 RATIO = 6.00990E+15.

               CONVERGENCE CHECKS FOR EQUILIBRIUM ITERATION     1


 AVERAGE FORCE                      3.126E+07   TIME AVG. FORCE       1.856E+07
 LARGEST RESIDUAL FORCE             3.689E-07   AT NODE          1   DOF  1
   INSTANCE: BLOCK-1                                                                         
 LARGEST INCREMENT OF DISP.        -1.000E-03   AT NODE          1   DOF  2
   INSTANCE: BLOCK-1                                                                         
 LARGEST CORRECTION TO DISP.        4.470E-08   AT NODE          4   DOF  1
   INSTANCE: BLOCK-1                                                                         
          THE FORCE     EQUILIBRIUM RESPONSE WAS LINEAR IN THIS INCREMENT

 ITERATION SUMMARY FOR THE INCREMENT:   1 TOTAL ITERATIONS, OF WHICH
   0 ARE SEVERE DISCONTINUITY ITERATIONS AND  1 ARE EQUILIBRIUM ITERATIONS.

 TIME INCREMENT COMPLETED  0.100    ,  FRACTION OF STEP COMPLETED  4.000E-02
 STEP TIME COMPLETED       0.400    ,  TOTAL TIME COMPLETED        0.400    


  INCREMENT     5 STARTS. ATTEMPT NUMBER  1, TIME INCREMENT  0.100    

  NUMBER OF EQUATIONS =        8     NUMBER OF FLOATING PT. OPERATIONS =  3.52E+02

     CHECK POINT   START OF SOLVER    

     CHECK POINT  END OF SOLVER       

       ELAPSED USER TIME (SEC)      =   0.0000    
       ELAPSED SYSTEM TIME (SEC)    =   0.0000    
       ELAPSED TOTAL CPU TIME (SEC) =   0.0000    
       ELAPSED WALLCLOCK TIME (SEC) =          0
 

 ***WARNING: SOLVER PROBLEM. NUMERICAL SINGULARITY WHEN PROCESSING NODE 
             BLOCK-1.3 D.O.F. 1 RATIO = 6.00936E+15.

               CONVERGENCE CHECKS FOR EQUILIBRIUM ITERATION     1


 AVERAGE FORCE                      3.908E+07   TIME AVG. FORCE       2.266E+07
 LARGEST RESIDUAL FORCE             3.689E-07   AT NODE          1   DOF  1
   INSTANCE: BLOCK-1                                                                         
 LARGEST INCREMENT OF DISP.        -1.000E-03   AT NODE          1   DOF  2
   INSTANCE: BLOCK-1                                                                         
 LARGEST CORRECTION TO DISP.       -7.600E-08   AT NODE          2   DOF  1
   INSTANCE: BLOCK-1                                                                         
          THE FORCE     EQUILIBRIUM RESPONSE WAS LINEAR IN THIS INCREMENT

 ITERATION SUMMARY FOR THE INCREMENT:   1 TOTAL ITERATIONS, OF WHICH
   0 ARE SEVERE DISCONTINUITY ITERATIONS AND  1 ARE EQUILIBRIUM ITERATIONS.

 TIME INCREMENT COMPLETED  0.100    ,  FRACTION OF STEP COMPLETED  5.000E-02
 STEP TIME COMPLETED       0.500    ,  TOTAL TIME COMPLETED        0.500    


  INCREMENT     6 STARTS. ATTEMPT NUMBER  1, TIME INCREMENT  0.100    

  NUMBER OF EQUATIONS =        8     NUMBER OF FLOATING PT. OPERATIONS =  3.52E+02

     CHECK POINT   START OF SOLVER    

     CHECK POINT  END OF SOLVER       

       ELAPSED USER TIME (SEC)      =   0.0000    
       ELAPSED SYSTEM TIME (SEC)    =   0.0000    
       ELAPSED TOTAL CPU TIME (SEC) =   0.0000    
       ELAPSED WALLCLOCK TIME (SEC) =          0
 

 ***WARNING: SOLVER PROBLEM. NUMERICAL SINGULARITY WHEN PROCESSING NODE 
             BLOCK-1.3 D.O.F. 1 RATIO = 3.00441E+15.

               CONVERGENCE CHECKS FOR EQUILIBRIUM ITERATION     1


 AVERAGE FORCE                      4.690E+07   TIME AVG. FORCE       2.670E+07
 LARGEST RESIDUAL FORCE             3.653E-07   AT NODE          1   DOF  1
   INSTANCE: BLOCK-1                                                                         
 LARGEST INCREMENT OF DISP.        -1.000E-03   AT NODE          1   DOF  2
   INSTANCE: BLOCK-1                                                                         
 LARGEST CORRECTION TO DISP.       -1.640E-08   AT NODE          1   DOF  1
   INSTANCE: BLOCK-1                                                                         
          THE FORCE     EQUILIBRIUM RESPONSE WAS LINEAR IN THIS INCREMENT

 ITERATION SUMMARY FOR THE INCREMENT:   1 TOTAL ITERATIONS, OF WHICH
   0 ARE SEVERE DISCONTINUITY ITERATIONS AND  1 ARE EQUILIBRIUM ITERATIONS.

 TIME INCREMENT COMPLETED  0.100    ,  FRACTION OF STEP COMPLETED  6.000E-02
 STEP TIME COMPLETED       0.600    ,  TOTAL TIME COMPLETED        0.600    


  INCREMENT     7 STARTS. ATTEMPT NUMBER  1, TIME INCREMENT  0.100    

  NUMBER OF EQUATIONS =        8     NUMBER OF FLOATING PT. OPERATIONS =  3.52E+02

     CHECK POINT   START OF SOLVER    

     CHECK POINT  END OF SOLVER       

       ELAPSED USER TIME (SEC)      =   0.0000    
       ELAPSED SYSTEM TIME (SEC)    =   0.0000    
       ELAPSED TOTAL CPU TIME (SEC) =   0.0000    
       ELAPSED WALLCLOCK TIME (SEC) =          0

 ***WARNING: SOLVER PROBLEM.  ZERO PIVOT WHEN PROCESSING NODE 3 INSTANCE 
             BLOCK-1 D.O.F. 1
  Typically a zero pivot is associated with an overconstraint in the model. 
 However, Abaqus was not able to indentify any chains of constraints that might 
 lead to an overconstraint at this node. This suggests that the model might be 
 in fact insufficiently constrained in this particular degree of freedom. 
 Please check the constraints used in this model. 


 ***WARNING: Solver problem. Zero pivot when processing D.O.F. 1 of 1 nodes. 
             The nodes have been identified in node set 
             WarnNodeSolvProbZeroPiv_1_1_7_1_1.

               CONVERGENCE CHECKS FOR EQUILIBRIUM ITERATION     1


 AVERAGE FORCE                      5.472E+07   TIME AVG. FORCE       3.070E+07
 LARGEST RESIDUAL FORCE             3.653E-07   AT NODE          1   DOF  1
   INSTANCE: BLOCK-1                                                                         
 LARGEST INCREMENT OF DISP.        -1.000E-03   AT NODE          1   DOF  2
   INSTANCE: BLOCK-1                                                                         
 LARGEST CORRECTION TO DISP.       -3.131E-08   AT NODE          2   DOF  1
   INSTANCE: BLOCK-1                                                                         
          THE FORCE     EQUILIBRIUM RESPONSE WAS LINEAR IN THIS INCREMENT

 ITERATION SUMMARY FOR THE INCREMENT:   1 TOTAL ITERATIONS, OF WHICH
   0 ARE SEVERE DISCONTINUITY ITERATIONS AND  1 ARE EQUILIBRIUM ITERATIONS.

 TIME INCREMENT COMPLETED  0.100    ,  FRACTION OF STEP COMPLETED  7.000E-02
 STEP TIME COMPLETED       0.700    ,  TOTAL TIME COMPLETED        0.700    


  INCREMENT     8 STARTS. ATTEMPT NUMBER  1, TIME INCREMENT  0.100    

  NUMBER OF EQUATIONS =        8     NUMBER OF FLOATING PT. OPERATIONS =  3.52E+02

     CHECK POINT   START OF SOLVER    

     CHECK POINT  END OF SOLVER       

       ELAPSED USER TIME (SEC)      =   0.0000    
       ELAPSED SYSTEM TIME (SEC)    =   0.0000    
       ELAPSED TOTAL CPU TIME (SEC) =   0.0000    
       ELAPSED WALLCLOCK TIME (SEC) =          0

 ***WARNING: SOLVER PROBLEM.  ZERO PIVOT WHEN PROCESSING NODE 3 INSTANCE 
             BLOCK-1 D.O.F. 1
  Typically a zero pivot is associated with an overconstraint in the model. 
 However, Abaqus was not able to indentify any chains of constraints that might 
 lead to an overconstraint at this node. This suggests that the model might be 
 in fact insufficiently constrained in this particular degree of freedom. 
 Please check the constraints used in this model. 


 ***WARNING: Solver problem. Zero pivot when processing D.O.F. 1 of 1 nodes. 
             The nodes have been identified in node set 
             WarnNodeSolvProbZeroPiv_1_1_8_1_1.

               CONVERGENCE CHECKS FOR EQUILIBRIUM ITERATION     1


 AVERAGE FORCE                      6.254E+07   TIME AVG. FORCE       3.468E+07
 LARGEST RESIDUAL FORCE             3.699E-07   AT NODE          1   DOF  1
   INSTANCE: BLOCK-1                                                                         
 LARGEST INCREMENT OF DISP.        -1.000E-03   AT NODE          1   DOF  2
   INSTANCE: BLOCK-1                                                                         
 LARGEST CORRECTION TO DISP.       -3.132E-08   AT NODE          1   DOF  1
   INSTANCE: BLOCK-1                                                                         
          THE FORCE     EQUILIBRIUM RESPONSE WAS LINEAR IN THIS INCREMENT

 ITERATION SUMMARY FOR THE INCREMENT:   1 TOTAL ITERATIONS, OF WHICH
   0 ARE SEVERE DISCONTINUITY ITERATIONS AND  1 ARE EQUILIBRIUM ITERATIONS.

 TIME INCREMENT COMPLETED  0.100    ,  FRACTION OF STEP COMPLETED  8.000E-02
 STEP TIME COMPLETED       0.800    ,  TOTAL TIME COMPLETED        0.800    


  INCREMENT     9 STARTS. ATTEMPT NUMBER  1, TIME INCREMENT  0.100    

  NUMBER OF EQUATIONS =        8     NUMBER OF FLOATING PT. OPERATIONS =  3.52E+02

     CHECK POINT   START OF SOLVER    

     CHECK POINT  END OF SOLVER       

       ELAPSED USER TIME (SEC)      =   0.0000    
       ELAPSED SYSTEM TIME (SEC)    =   0.0000    
       ELAPSED TOTAL CPU TIME (SEC) =   0.0000    
       ELAPSED WALLCLOCK TIME (SEC) =          0
 

 ***WARNING: SOLVER PROBLEM. NUMERICAL SINGULARITY WHEN PROCESSING NODE 
             BLOCK-1.3 D.O.F. 1 RATIO = 3.00359E+15.

               CONVERGENCE CHECKS FOR EQUILIBRIUM ITERATION     1


 AVERAGE FORCE                      7.036E+07   TIME AVG. FORCE       3.865E+07
 LARGEST RESIDUAL FORCE             3.675E-07   AT NODE          1   DOF  1
   INSTANCE: BLOCK-1                                                                         
 LARGEST INCREMENT OF DISP.        -1.000E-03   AT NODE          1   DOF  2
   INSTANCE: BLOCK-1                                                                         
 LARGEST CORRECTION TO DISP.        2.980E-08   AT NODE          3   DOF  1
   INSTANCE: BLOCK-1                                                                         
          THE FORCE     EQUILIBRIUM RESPONSE WAS LINEAR IN THIS INCREMENT

 ITERATION SUMMARY FOR THE INCREMENT:   1 TOTAL ITERATIONS, OF WHICH
   0 ARE SEVERE DISCONTINUITY ITERATIONS AND  1 ARE EQUILIBRIUM ITERATIONS.

 TIME INCREMENT COMPLETED  0.100    ,  FRACTION OF STEP COMPLETED  9.000E-02
 STEP TIME COMPLETED       0.900    ,  TOTAL TIME COMPLETED        0.900    


  INCREMENT    10 STARTS. ATTEMPT NUMBER  1, TIME INCREMENT  0.100    

  NUMBER OF EQUATIONS =        8     NUMBER OF FLOATING PT. OPERATIONS =  3.52E+02

     CHECK POINT   START OF SOLVER    

     CHECK POINT  END OF SOLVER       

       ELAPSED USER TIME (SEC)      =   0.0000    
       ELAPSED SYSTEM TIME (SEC)    =   0.0000    
       ELAPSED TOTAL CPU TIME (SEC) =   0.0000    
       ELAPSED WALLCLOCK TIME (SEC) =          0
 

 ***WARNING: SOLVER PROBLEM. NUMERICAL SINGULARITY WHEN PROCESSING NODE 
             BLOCK-1.3 D.O.F. 1 RATIO = 3.00331E+15.

               CONVERGENCE CHECKS FOR EQUILIBRIUM ITERATION     1


 AVERAGE FORCE                      7.819E+07   TIME AVG. FORCE       4.260E+07
 LARGEST RESIDUAL FORCE             3.629E-07   AT NODE          1   DOF  1
   INSTANCE: BLOCK-1                                                                         
 LARGEST INCREMENT OF DISP.        -1.000E-03   AT NODE          1   DOF  2
   INSTANCE: BLOCK-1                                                                         
 LARGEST CORRECTION TO DISP.       -3.133E-08   AT NODE          1   DOF  1
   INSTANCE: BLOCK-1                                                                         
          THE FORCE     EQUILIBRIUM RESPONSE WAS LINEAR IN THIS INCREMENT

 ITERATION SUMMARY FOR THE INCREMENT:   1 TOTAL ITERATIONS, OF WHICH
   0 ARE SEVERE DISCONTINUITY ITERATIONS AND  1 ARE EQUILIBRIUM ITERATIONS.

 TIME INCREMENT COMPLETED  0.100    ,  FRACTION OF STEP COMPLETED  0.100    
 STEP TIME COMPLETED        1.00    ,  TOTAL TIME COMPLETED         1.00    


  INCREMENT    11 STARTS. ATTEMPT NUMBER  1, TIME INCREMENT  0.100    

  NUMBER OF EQUATIONS =        8     NUMBER OF FLOATING PT. OPERATIONS =  3.52E+02

     CHECK POINT   START OF SOLVER    

     CHECK POINT  END OF SOLVER       

       ELAPSED USER TIME (SEC)      =   0.0000    
       ELAPSED SYSTEM TIME (SEC)    =   0.0000    
       ELAPSED TOTAL CPU TIME (SEC) =   0.0000    
       ELAPSED WALLCLOCK TIME (SEC) =          0
 

 ***WARNING: SOLVER PROBLEM. NUMERICAL SINGULARITY WHEN PROCESSING NODE 
             BLOCK-1.3 D.O.F. 1 RATIO = 1.50152E+15.

               CONVERGENCE CHECKS FOR EQUILIBRIUM ITERATION     1


 AVERAGE FORCE                      8.601E+07   TIME AVG. FORCE       4.655E+07
 LARGEST RESIDUAL FORCE             3.675E-07   AT NODE          1   DOF  1
   INSTANCE: BLOCK-1                                                                         
 LARGEST INCREMENT OF DISP.        -1.000E-03   AT NODE          1   DOF  2
   INSTANCE: BLOCK-1                                                                         
 LARGEST CORRECTION TO DISP.       -3.134E-08   AT NODE          1   DOF  1
   INSTANCE: BLOCK-1                                                                         
          THE FORCE     EQUILIBRIUM RESPONSE WAS LINEAR IN THIS INCREMENT

 ITERATION SUMMARY FOR THE INCREMENT:   1 TOTAL ITERATIONS, OF WHICH
   0 ARE SEVERE DISCONTINUITY ITERATIONS AND  1 ARE EQUILIBRIUM ITERATIONS.

 TIME INCREMENT COMPLETED  0.100    ,  FRACTION OF STEP COMPLETED  0.110    
 STEP TIME COMPLETED        1.10    ,  TOTAL TIME COMPLETED         1.10    


  INCREMENT    12 STARTS. ATTEMPT NUMBER  1, TIME INCREMENT  0.100    

  NUMBER OF EQUATIONS =        8     NUMBER OF FLOATING PT. OPERATIONS =  3.52E+02

     CHECK POINT   START OF SOLVER    

     CHECK POINT  END OF SOLVER       

       ELAPSED USER TIME (SEC)      =   0.0000    
       ELAPSED SYSTEM TIME (SEC)    =   0.0000    
       ELAPSED TOTAL CPU TIME (SEC) =   0.0000    
       ELAPSED WALLCLOCK TIME (SEC) =          0

 ***WARNING: SOLVER PROBLEM.  ZERO PIVOT WHEN PROCESSING NODE 3 INSTANCE 
             BLOCK-1 D.O.F. 1
  Typically a zero pivot is associated with an overconstraint in the model. 
 However, Abaqus was not able to indentify any chains of constraints that might 
 lead to an overconstraint at this node. This suggests that the model might be 
 in fact insufficiently constrained in this particular degree of freedom. 
 Please check the constraints used in this model. 


 ***WARNING: Solver problem. Zero pivot when processing D.O.F. 1 of 1 nodes. 
             The nodes have been identified in node set 
             WarnNodeSolvProbZeroPiv_1_1_12_1_1.

               CONVERGENCE CHECKS FOR EQUILIBRIUM ITERATION     1


 AVERAGE FORCE                      9.384E+07   TIME AVG. FORCE       5.049E+07
 LARGEST RESIDUAL FORCE             3.674E-07   AT NODE          1   DOF  1
   INSTANCE: BLOCK-1                                                                         
 LARGEST INCREMENT OF DISP.        -1.000E-03   AT NODE          1   DOF  2
   INSTANCE: BLOCK-1                                                                         
 LARGEST CORRECTION TO DISP.       -3.135E-08   AT NODE          1   DOF  1
   INSTANCE: BLOCK-1                                                                         
          THE FORCE     EQUILIBRIUM RESPONSE WAS LINEAR IN THIS INCREMENT

 ITERATION SUMMARY FOR THE INCREMENT:   1 TOTAL ITERATIONS, OF WHICH
   0 ARE SEVERE DISCONTINUITY ITERATIONS AND  1 ARE EQUILIBRIUM ITERATIONS.

 TIME INCREMENT COMPLETED  0.100    ,  FRACTION OF STEP COMPLETED  0.120    
 STEP TIME COMPLETED        1.20    ,  TOTAL TIME COMPLETED         1.20    


  INCREMENT    13 STARTS. ATTEMPT NUMBER  1, TIME INCREMENT  0.100    

  NUMBER OF EQUATIONS =        8     NUMBER OF FLOATING PT. OPERATIONS =  3.52E+02

     CHECK POINT   START OF SOLVER    

     CHECK POINT  END OF SOLVER       

       ELAPSED USER TIME (SEC)      =   0.0000    
       ELAPSED SYSTEM TIME (SEC)    =   0.0000    
       ELAPSED TOTAL CPU TIME (SEC) =   0.0000    
       ELAPSED WALLCLOCK TIME (SEC) =          0

 ***WARNING: SOLVER PROBLEM.  ZERO PIVOT WHEN PROCESSING NODE 3 INSTANCE 
             BLOCK-1 D.O.F. 1
  Typically a zero pivot is associated with an overconstraint in the model. 
 However, Abaqus was not able to indentify any chains of constraints that might 
 lead to an overconstraint at this node. This suggests that the model might be 
 in fact insufficiently constrained in this particular degree of freedom. 
 Please check the constraints used in this model. 


 ***WARNING: Solver problem. Zero pivot when processing D.O.F. 1 of 1 nodes. 
             The nodes have been identified in node set 
             WarnNodeSolvProbZeroPiv_1_1_13_1_1.

               CONVERGENCE CHECKS FOR EQUILIBRIUM ITERATION     1


 AVERAGE FORCE                      1.017E+08   TIME AVG. FORCE       5.443E+07
 LARGEST RESIDUAL FORCE             3.627E-07   AT NODE          1   DOF  1
   INSTANCE: BLOCK-1                                                                         
 LARGEST INCREMENT OF DISP.        -1.000E-03   AT NODE          1   DOF  2
   INSTANCE: BLOCK-1                                                                         
 LARGEST CORRECTION TO DISP.       -3.135E-08   AT NODE          1   DOF  1
   INSTANCE: BLOCK-1                                                                         
          THE FORCE     EQUILIBRIUM RESPONSE WAS LINEAR IN THIS INCREMENT

 ITERATION SUMMARY FOR THE INCREMENT:   1 TOTAL ITERATIONS, OF WHICH
   0 ARE SEVERE DISCONTINUITY ITERATIONS AND  1 ARE EQUILIBRIUM ITERATIONS.

 TIME INCREMENT COMPLETED  0.100    ,  FRACTION OF STEP COMPLETED  0.130    
 STEP TIME COMPLETED        1.30    ,  TOTAL TIME COMPLETED         1.30    


  INCREMENT    14 STARTS. ATTEMPT NUMBER  1, TIME INCREMENT  0.100    

  NUMBER OF EQUATIONS =        8     NUMBER OF FLOATING PT. OPERATIONS =  3.52E+02

     CHECK POINT   START OF SOLVER    

     CHECK POINT  END OF SOLVER       

       ELAPSED USER TIME (SEC)      =   0.0000    
       ELAPSED SYSTEM TIME (SEC)    =   0.0000    
       ELAPSED TOTAL CPU TIME (SEC) =   0.0000    
       ELAPSED WALLCLOCK TIME (SEC) =          0
 

 ***WARNING: SOLVER PROBLEM. NUMERICAL SINGULARITY WHEN PROCESSING NODE 
             BLOCK-1.3 D.O.F. 1 RATIO = 6.00444E+15.

               CONVERGENCE CHECKS FOR EQUILIBRIUM ITERATION     1


 AVERAGE FORCE                      1.095E+08   TIME AVG. FORCE       5.836E+07
 LARGEST RESIDUAL FORCE             3.627E-07   AT NODE          1   DOF  1
   INSTANCE: BLOCK-1                                                                         
 LARGEST INCREMENT OF DISP.        -1.000E-03   AT NODE          1   DOF  2
   INSTANCE: BLOCK-1                                                                         
 LARGEST CORRECTION TO DISP.       -1.646E-08   AT NODE          1   DOF  1
   INSTANCE: BLOCK-1                                                                         
          THE FORCE     EQUILIBRIUM RESPONSE WAS LINEAR IN THIS INCREMENT

 ITERATION SUMMARY FOR THE INCREMENT:   1 TOTAL ITERATIONS, OF WHICH
   0 ARE SEVERE DISCONTINUITY ITERATIONS AND  1 ARE EQUILIBRIUM ITERATIONS.

 TIME INCREMENT COMPLETED  0.100    ,  FRACTION OF STEP COMPLETED  0.140    
 STEP TIME COMPLETED        1.40    ,  TOTAL TIME COMPLETED         1.40    


  INCREMENT    15 STARTS. ATTEMPT NUMBER  1, TIME INCREMENT  0.100    

  NUMBER OF EQUATIONS =        8     NUMBER OF FLOATING PT. OPERATIONS =  3.52E+02

     CHECK POINT   START OF SOLVER    

     CHECK POINT  END OF SOLVER       

       ELAPSED USER TIME (SEC)      =   0.0000    
       ELAPSED SYSTEM TIME (SEC)    =   0.0000    
       ELAPSED TOTAL CPU TIME (SEC) =   0.0000    
       ELAPSED WALLCLOCK TIME (SEC) =          0

 ***WARNING: SOLVER PROBLEM.  ZERO PIVOT WHEN PROCESSING NODE 3 INSTANCE 
             BLOCK-1 D.O.F. 1
  Typically a zero pivot is associated with an overconstraint in the model. 
 However, Abaqus was not able to indentify any chains of constraints that might 
 lead to an overconstraint at this node. This suggests that the model might be 
 in fact insufficiently constrained in this particular degree of freedom. 
 Please check the constraints used in this model. 


 ***WARNING: Solver problem. Zero pivot when processing D.O.F. 1 of 1 nodes. 
             The nodes have been identified in node set 
             WarnNodeSolvProbZeroPiv_1_1_15_1_1.

               CONVERGENCE CHECKS FOR EQUILIBRIUM ITERATION     1


 AVERAGE FORCE                      1.173E+08   TIME AVG. FORCE       6.229E+07
 LARGEST RESIDUAL FORCE             3.673E-07   AT NODE          1   DOF  1
   INSTANCE: BLOCK-1                                                                         
 LARGEST INCREMENT OF DISP.        -1.000E-03   AT NODE          1   DOF  2
   INSTANCE: BLOCK-1                                                                         
 LARGEST CORRECTION TO DISP.       -3.137E-08   AT NODE          1   DOF  1
   INSTANCE: BLOCK-1                                                                         
          THE FORCE     EQUILIBRIUM RESPONSE WAS LINEAR IN THIS INCREMENT

 ITERATION SUMMARY FOR THE INCREMENT:   1 TOTAL ITERATIONS, OF WHICH
   0 ARE SEVERE DISCONTINUITY ITERATIONS AND  1 ARE EQUILIBRIUM ITERATIONS.

 TIME INCREMENT COMPLETED  0.100    ,  FRACTION OF STEP COMPLETED  0.150    
 STEP TIME COMPLETED        1.50    ,  TOTAL TIME COMPLETED         1.50    


  INCREMENT    16 STARTS. ATTEMPT NUMBER  1, TIME INCREMENT  0.100    

  NUMBER OF EQUATIONS =        8     NUMBER OF FLOATING PT. OPERATIONS =  3.52E+02

     CHECK POINT   START OF SOLVER    

     CHECK POINT  END OF SOLVER       

       ELAPSED USER TIME (SEC)      =   0.0000    
       ELAPSED SYSTEM TIME (SEC)    =   0.0000    
       ELAPSED TOTAL CPU TIME (SEC) =   0.0000    
       ELAPSED WALLCLOCK TIME (SEC) =          0

 ***WARNING: SOLVER PROBLEM.  ZERO PIVOT WHEN PROCESSING NODE 3 INSTANCE 
             BLOCK-1 D.O.F. 1
  Typically a zero pivot is associated with an overconstraint in the model. 
 However, Abaqus was not able to indentify any chains of constraints that might 
 lead to an overconstraint at this node. This suggests that the model might be 
 in fact insufficiently constrained in this particular degree of freedom. 
 Please check the constraints used in this model. 


 ***WARNING: Solver problem. Zero pivot when processing D.O.F. 1 of 1 nodes. 
             The nodes have been identified in node set 
             WarnNodeSolvProbZeroPiv_1_1_16_1_1.

               CONVERGENCE CHECKS FOR EQUILIBRIUM ITERATION     1


 AVERAGE FORCE                      1.252E+08   TIME AVG. FORCE       6.622E+07
 LARGEST RESIDUAL FORCE             3.719E-07   AT NODE          1   DOF  1
   INSTANCE: BLOCK-1                                                                         
 LARGEST INCREMENT OF DISP.        -1.000E-03   AT NODE          1   DOF  2
   INSTANCE: BLOCK-1                                                                         
 LARGEST CORRECTION TO DISP.       -3.137E-08   AT NODE          2   DOF  1
   INSTANCE: BLOCK-1                                                                         
          THE FORCE     EQUILIBRIUM RESPONSE WAS LINEAR IN THIS INCREMENT

 ITERATION SUMMARY FOR THE INCREMENT:   1 TOTAL ITERATIONS, OF WHICH
   0 ARE SEVERE DISCONTINUITY ITERATIONS AND  1 ARE EQUILIBRIUM ITERATIONS.

 TIME INCREMENT COMPLETED  0.100    ,  FRACTION OF STEP COMPLETED  0.160    
 STEP TIME COMPLETED        1.60    ,  TOTAL TIME COMPLETED         1.60    


  INCREMENT    17 STARTS. ATTEMPT NUMBER  1, TIME INCREMENT  0.100    

  NUMBER OF EQUATIONS =        8     NUMBER OF FLOATING PT. OPERATIONS =  3.52E+02

     CHECK POINT   START OF SOLVER    

     CHECK POINT  END OF SOLVER       

       ELAPSED USER TIME (SEC)      =   0.0000    
       ELAPSED SYSTEM TIME (SEC)    =   0.0000    
       ELAPSED TOTAL CPU TIME (SEC) =   0.0000    
       ELAPSED WALLCLOCK TIME (SEC) =          0
 

 ***WARNING: SOLVER PROBLEM. NUMERICAL SINGULARITY WHEN PROCESSING NODE 
             BLOCK-1.3 D.O.F. 1 RATIO = 3.00140E+15.

               CONVERGENCE CHECKS FOR EQUILIBRIUM ITERATION     1


 AVERAGE FORCE                      1.330E+08   TIME AVG. FORCE       7.015E+07
 LARGEST RESIDUAL FORCE             3.672E-07   AT NODE          1   DOF  1
   INSTANCE: BLOCK-1                                                                         
 LARGEST INCREMENT OF DISP.        -1.000E-03   AT NODE          1   DOF  2
   INSTANCE: BLOCK-1                                                                         
 LARGEST CORRECTION TO DISP.        2.980E-08   AT NODE          4   DOF  1
   INSTANCE: BLOCK-1                                                                         
          THE FORCE     EQUILIBRIUM RESPONSE WAS LINEAR IN THIS INCREMENT

 ITERATION SUMMARY FOR THE INCREMENT:   1 TOTAL ITERATIONS, OF WHICH
   0 ARE SEVERE DISCONTINUITY ITERATIONS AND  1 ARE EQUILIBRIUM ITERATIONS.

 TIME INCREMENT COMPLETED  0.100    ,  FRACTION OF STEP COMPLETED  0.170    
 STEP TIME COMPLETED        1.70    ,  TOTAL TIME COMPLETED         1.70    


  INCREMENT    18 STARTS. ATTEMPT NUMBER  1, TIME INCREMENT  0.100    

  NUMBER OF EQUATIONS =        8     NUMBER OF FLOATING PT. OPERATIONS =  3.52E+02

     CHECK POINT   START OF SOLVER    

     CHECK POINT  END OF SOLVER       

       ELAPSED USER TIME (SEC)      =   0.0000    
       ELAPSED SYSTEM TIME (SEC)    =   0.0000    
       ELAPSED TOTAL CPU TIME (SEC) =   0.0000    
       ELAPSED WALLCLOCK TIME (SEC) =          0
 

 ***WARNING: SOLVER PROBLEM. NUMERICAL SINGULARITY WHEN PROCESSING NODE 
             BLOCK-1.3 D.O.F. 1 RATIO = 3.00113E+15.

               CONVERGENCE CHECKS FOR EQUILIBRIUM ITERATION     1


 AVERAGE FORCE                      1.408E+08   TIME AVG. FORCE       7.407E+07
 LARGEST RESIDUAL FORCE             3.672E-07   AT NODE          1   DOF  1
   INSTANCE: BLOCK-1                                                                         
 LARGEST INCREMENT OF DISP.        -1.000E-03   AT NODE          1   DOF  2
   INSTANCE: BLOCK-1                                                                         
 LARGEST CORRECTION TO DISP.        2.980E-08   AT NODE          3   DOF  1
   INSTANCE: BLOCK-1                                                                         
          THE FORCE     EQUILIBRIUM RESPONSE WAS LINEAR IN THIS INCREMENT

 ITERATION SUMMARY FOR THE INCREMENT:   1 TOTAL ITERATIONS, OF WHICH
   0 ARE SEVERE DISCONTINUITY ITERATIONS AND  1 ARE EQUILIBRIUM ITERATIONS.

 TIME INCREMENT COMPLETED  0.100    ,  FRACTION OF STEP COMPLETED  0.180    
 STEP TIME COMPLETED        1.80    ,  TOTAL TIME COMPLETED         1.80    


  INCREMENT    19 STARTS. ATTEMPT NUMBER  1, TIME INCREMENT  0.100    

  NUMBER OF EQUATIONS =        8     NUMBER OF FLOATING PT. OPERATIONS =  3.52E+02

     CHECK POINT   START OF SOLVER    

     CHECK POINT  END OF SOLVER       

       ELAPSED USER TIME (SEC)      =   0.0000    
       ELAPSED SYSTEM TIME (SEC)    =   0.0000    
       ELAPSED TOTAL CPU TIME (SEC) =   0.0000    
       ELAPSED WALLCLOCK TIME (SEC) =          0
 

 ***WARNING: SOLVER PROBLEM. NUMERICAL SINGULARITY WHEN PROCESSING NODE 
             BLOCK-1.3 D.O.F. 1 RATIO = 6.00171E+15.

               CONVERGENCE CHECKS FOR EQUILIBRIUM ITERATION     1


 AVERAGE FORCE                      1.487E+08   TIME AVG. FORCE       7.800E+07
 LARGEST RESIDUAL FORCE             3.672E-07   AT NODE          1   DOF  1
   INSTANCE: BLOCK-1                                                                         
 LARGEST INCREMENT OF DISP.        -1.000E-03   AT NODE          1   DOF  2
   INSTANCE: BLOCK-1                                                                         
 LARGEST CORRECTION TO DISP.       -3.140E-08   AT NODE          1   DOF  1
   INSTANCE: BLOCK-1                                                                         
          THE FORCE     EQUILIBRIUM RESPONSE WAS LINEAR IN THIS INCREMENT

 ITERATION SUMMARY FOR THE INCREMENT:   1 TOTAL ITERATIONS, OF WHICH
   0 ARE SEVERE DISCONTINUITY ITERATIONS AND  1 ARE EQUILIBRIUM ITERATIONS.

 TIME INCREMENT COMPLETED  0.100    ,  FRACTION OF STEP COMPLETED  0.190    
 STEP TIME COMPLETED        1.90    ,  TOTAL TIME COMPLETED         1.90    


  INCREMENT    20 STARTS. ATTEMPT NUMBER  1, TIME INCREMENT  0.100    

  NUMBER OF EQUATIONS =        8     NUMBER OF FLOATING PT. OPERATIONS =  3.52E+02

     CHECK POINT   START OF SOLVER    

     CHECK POINT  END OF SOLVER       

       ELAPSED USER TIME (SEC)      =   0.0000    
       ELAPSED SYSTEM TIME (SEC)    =   0.0000    
       ELAPSED TOTAL CPU TIME (SEC) =   0.0000    
       ELAPSED WALLCLOCK TIME (SEC) =          0
 

 ***WARNING: SOLVER PROBLEM. NUMERICAL SINGULARITY WHEN PROCESSING NODE 
             BLOCK-1.3 D.O.F. 1 RATIO = 1.50029E+15.

               CONVERGENCE CHECKS FOR EQUILIBRIUM ITERATION     1


 AVERAGE FORCE                      1.565E+08   TIME AVG. FORCE       8.192E+07
 LARGEST RESIDUAL FORCE             3.764E-07   AT NODE          1   DOF  1
   INSTANCE: BLOCK-1                                                                         
 LARGEST INCREMENT OF DISP.        -1.000E-03   AT NODE          1   DOF  2
   INSTANCE: BLOCK-1                                                                         
 LARGEST CORRECTION TO DISP.       -3.513E-08   AT NODE          1   DOF  1
   INSTANCE: BLOCK-1                                                                         
          THE FORCE     EQUILIBRIUM RESPONSE WAS LINEAR IN THIS INCREMENT

 ITERATION SUMMARY FOR THE INCREMENT:   1 TOTAL ITERATIONS, OF WHICH
   0 ARE SEVERE DISCONTINUITY ITERATIONS AND  1 ARE EQUILIBRIUM ITERATIONS.

 TIME INCREMENT COMPLETED  0.100    ,  FRACTION OF STEP COMPLETED  0.200    
 STEP TIME COMPLETED        2.00    ,  TOTAL TIME COMPLETED         2.00    


  INCREMENT    21 STARTS. ATTEMPT NUMBER  1, TIME INCREMENT  0.100    

  NUMBER OF EQUATIONS =        8     NUMBER OF FLOATING PT. OPERATIONS =  3.52E+02

     CHECK POINT   START OF SOLVER    

     CHECK POINT  END OF SOLVER       

       ELAPSED USER TIME (SEC)      =   0.0000    
       ELAPSED SYSTEM TIME (SEC)    =   0.0000    
       ELAPSED TOTAL CPU TIME (SEC) =   0.0000    
       ELAPSED WALLCLOCK TIME (SEC) =          0
 

 ***WARNING: SOLVER PROBLEM. NUMERICAL SINGULARITY WHEN PROCESSING NODE 
             BLOCK-1.3 D.O.F. 1 RATIO = 2.00021E+15.

               CONVERGENCE CHECKS FOR EQUILIBRIUM ITERATION     1


 AVERAGE FORCE                      1.643E+08   TIME AVG. FORCE       8.585E+07
 LARGEST RESIDUAL FORCE             3.717E-07   AT NODE          1   DOF  1
   INSTANCE: BLOCK-1                                                                         
 LARGEST INCREMENT OF DISP.        -1.000E-03   AT NODE          1   DOF  2
   INSTANCE: BLOCK-1                                                                         
 LARGEST CORRECTION TO DISP.        1.987E-08   AT NODE          4   DOF  1
   INSTANCE: BLOCK-1                                                                         
          THE FORCE     EQUILIBRIUM RESPONSE WAS LINEAR IN THIS INCREMENT

 ITERATION SUMMARY FOR THE INCREMENT:   1 TOTAL ITERATIONS, OF WHICH
   0 ARE SEVERE DISCONTINUITY ITERATIONS AND  1 ARE EQUILIBRIUM ITERATIONS.

 TIME INCREMENT COMPLETED  0.100    ,  FRACTION OF STEP COMPLETED  0.210    
 STEP TIME COMPLETED        2.10    ,  TOTAL TIME COMPLETED         2.10    


  INCREMENT    22 STARTS. ATTEMPT NUMBER  1, TIME INCREMENT  0.100    

  NUMBER OF EQUATIONS =        8     NUMBER OF FLOATING PT. OPERATIONS =  3.52E+02

     CHECK POINT   START OF SOLVER    

     CHECK POINT  END OF SOLVER       

       ELAPSED USER TIME (SEC)      =   0.0000    
       ELAPSED SYSTEM TIME (SEC)    =   0.0000    
       ELAPSED TOTAL CPU TIME (SEC) =   0.0000    
       ELAPSED WALLCLOCK TIME (SEC) =          0
 

 ***WARNING: SOLVER PROBLEM. NUMERICAL SINGULARITY WHEN PROCESSING NODE 
             BLOCK-1.3 D.O.F. 1 RATIO = 2.00002E+15.

               CONVERGENCE CHECKS FOR EQUILIBRIUM ITERATION     1


 AVERAGE FORCE                      1.722E+08   TIME AVG. FORCE       8.977E+07
 LARGEST RESIDUAL FORCE             3.717E-07   AT NODE          1   DOF  1
   INSTANCE: BLOCK-1                                                                         
 LARGEST INCREMENT OF DISP.        -1.000E-03   AT NODE          1   DOF  2
   INSTANCE: BLOCK-1                                                                         
 LARGEST CORRECTION TO DISP.       -2.645E-08   AT NODE          2   DOF  1
   INSTANCE: BLOCK-1                                                                         
          THE FORCE     EQUILIBRIUM RESPONSE WAS LINEAR IN THIS INCREMENT

 ITERATION SUMMARY FOR THE INCREMENT:   1 TOTAL ITERATIONS, OF WHICH
   0 ARE SEVERE DISCONTINUITY ITERATIONS AND  1 ARE EQUILIBRIUM ITERATIONS.

 TIME INCREMENT COMPLETED  0.100    ,  FRACTION OF STEP COMPLETED  0.220    
 STEP TIME COMPLETED        2.20    ,  TOTAL TIME COMPLETED         2.20    


  INCREMENT    23 STARTS. ATTEMPT NUMBER  1, TIME INCREMENT  0.100    

  NUMBER OF EQUATIONS =        8     NUMBER OF FLOATING PT. OPERATIONS =  3.52E+02

     CHECK POINT   START OF SOLVER    

     CHECK POINT  END OF SOLVER       

       ELAPSED USER TIME (SEC)      =   0.0000    
       ELAPSED SYSTEM TIME (SEC)    =   0.0000    
       ELAPSED TOTAL CPU TIME (SEC) =   0.0000    
       ELAPSED WALLCLOCK TIME (SEC) =          0
 

 ***WARNING: SOLVER PROBLEM. NUMERICAL SINGULARITY WHEN PROCESSING NODE 
             BLOCK-1.3 D.O.F. 1 RATIO = 5.99953E+15.

               CONVERGENCE CHECKS FOR EQUILIBRIUM ITERATION     1


 AVERAGE FORCE                      1.800E+08   TIME AVG. FORCE       9.369E+07
 LARGEST RESIDUAL FORCE             3.717E-07   AT NODE          1   DOF  1
   INSTANCE: BLOCK-1                                                                         
 LARGEST INCREMENT OF DISP.        -1.000E-03   AT NODE          1   DOF  2
   INSTANCE: BLOCK-1                                                                         
 LARGEST CORRECTION TO DISP.       -4.632E-08   AT NODE          1   DOF  1
   INSTANCE: BLOCK-1                                                                         
          THE FORCE     EQUILIBRIUM RESPONSE WAS LINEAR IN THIS INCREMENT

 ITERATION SUMMARY FOR THE INCREMENT:   1 TOTAL ITERATIONS, OF WHICH
   0 ARE SEVERE DISCONTINUITY ITERATIONS AND  1 ARE EQUILIBRIUM ITERATIONS.

 TIME INCREMENT COMPLETED  0.100    ,  FRACTION OF STEP COMPLETED  0.230    
 STEP TIME COMPLETED        2.30    ,  TOTAL TIME COMPLETED         2.30    


  INCREMENT    24 STARTS. ATTEMPT NUMBER  1, TIME INCREMENT  0.100    

  NUMBER OF EQUATIONS =        8     NUMBER OF FLOATING PT. OPERATIONS =  3.52E+02

     CHECK POINT   START OF SOLVER    

     CHECK POINT  END OF SOLVER       

       ELAPSED USER TIME (SEC)      =   0.0000    
       ELAPSED SYSTEM TIME (SEC)    =   0.0000    
       ELAPSED TOTAL CPU TIME (SEC) =   0.0000    
       ELAPSED WALLCLOCK TIME (SEC) =          0
 

 ***WARNING: SOLVER PROBLEM. NUMERICAL SINGULARITY WHEN PROCESSING NODE 
             BLOCK-1.3 D.O.F. 1 RATIO = 1.49974E+15.

               CONVERGENCE CHECKS FOR EQUILIBRIUM ITERATION     1


 AVERAGE FORCE                      1.878E+08   TIME AVG. FORCE       9.762E+07
 LARGEST RESIDUAL FORCE             3.623E-07   AT NODE          1   DOF  1
   INSTANCE: BLOCK-1                                                                         
 LARGEST INCREMENT OF DISP.        -1.000E-03   AT NODE          1   DOF  2
   INSTANCE: BLOCK-1                                                                         
 LARGEST CORRECTION TO DISP.        2.235E-08   AT NODE          4   DOF  1
   INSTANCE: BLOCK-1                                                                         
          THE FORCE     EQUILIBRIUM RESPONSE WAS LINEAR IN THIS INCREMENT

 ITERATION SUMMARY FOR THE INCREMENT:   1 TOTAL ITERATIONS, OF WHICH
   0 ARE SEVERE DISCONTINUITY ITERATIONS AND  1 ARE EQUILIBRIUM ITERATIONS.

 TIME INCREMENT COMPLETED  0.100    ,  FRACTION OF STEP COMPLETED  0.240    
 STEP TIME COMPLETED        2.40    ,  TOTAL TIME COMPLETED         2.40    


  INCREMENT    25 STARTS. ATTEMPT NUMBER  1, TIME INCREMENT  0.100    

  NUMBER OF EQUATIONS =        8     NUMBER OF FLOATING PT. OPERATIONS =  3.52E+02

     CHECK POINT   START OF SOLVER    

     CHECK POINT  END OF SOLVER       

       ELAPSED USER TIME (SEC)      =   0.0000    
       ELAPSED SYSTEM TIME (SEC)    =   0.0000    
       ELAPSED TOTAL CPU TIME (SEC) =   0.0000    
       ELAPSED WALLCLOCK TIME (SEC) =          0
 

 ***WARNING: SOLVER PROBLEM. NUMERICAL SINGULARITY WHEN PROCESSING NODE 
             BLOCK-1.3 D.O.F. 1 RATIO = 5.99843E+15.

               CONVERGENCE CHECKS FOR EQUILIBRIUM ITERATION     1


 AVERAGE FORCE                      1.957E+08   TIME AVG. FORCE       1.015E+08
 LARGEST RESIDUAL FORCE             3.623E-07   AT NODE          1   DOF  1
   INSTANCE: BLOCK-1                                                                         
 LARGEST INCREMENT OF DISP.        -1.000E-03   AT NODE          1   DOF  2
   INSTANCE: BLOCK-1                                                                         
 LARGEST CORRECTION TO DISP.        2.980E-08   AT NODE          4   DOF  1
   INSTANCE: BLOCK-1                                                                         
          THE FORCE     EQUILIBRIUM RESPONSE WAS LINEAR IN THIS INCREMENT

 ITERATION SUMMARY FOR THE INCREMENT:   1 TOTAL ITERATIONS, OF WHICH
   0 ARE SEVERE DISCONTINUITY ITERATIONS AND  1 ARE EQUILIBRIUM ITERATIONS.

 TIME INCREMENT COMPLETED  0.100    ,  FRACTION OF STEP COMPLETED  0.250    
 STEP TIME COMPLETED        2.50    ,  TOTAL TIME COMPLETED         2.50    


  INCREMENT    26 STARTS. ATTEMPT NUMBER  1, TIME INCREMENT  0.100    

  NUMBER OF EQUATIONS =        8     NUMBER OF FLOATING PT. OPERATIONS =  3.52E+02

     CHECK POINT   START OF SOLVER    

     CHECK POINT  END OF SOLVER       

       ELAPSED USER TIME (SEC)      =   0.0000    
       ELAPSED SYSTEM TIME (SEC)    =   0.0000    
       ELAPSED TOTAL CPU TIME (SEC) =   0.0000    
       ELAPSED WALLCLOCK TIME (SEC) =          0
 

 ***WARNING: SOLVER PROBLEM. NUMERICAL SINGULARITY WHEN PROCESSING NODE 
             BLOCK-1.3 D.O.F. 1 RATIO = 1.99930E+15.

               CONVERGENCE CHECKS FOR EQUILIBRIUM ITERATION     1


 AVERAGE FORCE                      2.035E+08   TIME AVG. FORCE       1.055E+08
 LARGEST RESIDUAL FORCE             3.716E-07   AT NODE          1   DOF  1
   INSTANCE: BLOCK-1                                                                         
 LARGEST INCREMENT OF DISP.        -1.000E-03   AT NODE          1   DOF  2
   INSTANCE: BLOCK-1                                                                         
 LARGEST CORRECTION TO DISP.       -3.144E-08   AT NODE          2   DOF  1
   INSTANCE: BLOCK-1                                                                         
          THE FORCE     EQUILIBRIUM RESPONSE WAS LINEAR IN THIS INCREMENT

 ITERATION SUMMARY FOR THE INCREMENT:   1 TOTAL ITERATIONS, OF WHICH
   0 ARE SEVERE DISCONTINUITY ITERATIONS AND  1 ARE EQUILIBRIUM ITERATIONS.

 TIME INCREMENT COMPLETED  0.100    ,  FRACTION OF STEP COMPLETED  0.260    
 STEP TIME COMPLETED        2.60    ,  TOTAL TIME COMPLETED         2.60    


  INCREMENT    27 STARTS. ATTEMPT NUMBER  1, TIME INCREMENT  0.100    

  NUMBER OF EQUATIONS =        8     NUMBER OF FLOATING PT. OPERATIONS =  3.52E+02

     CHECK POINT   START OF SOLVER    

     CHECK POINT  END OF SOLVER       

       ELAPSED USER TIME (SEC)      =   0.0000    
       ELAPSED SYSTEM TIME (SEC)    =  0.10000    
       ELAPSED TOTAL CPU TIME (SEC) =  0.10000    
       ELAPSED WALLCLOCK TIME (SEC) =          0
 

 ***WARNING: SOLVER PROBLEM. NUMERICAL SINGULARITY WHEN PROCESSING NODE 
             BLOCK-1.3 D.O.F. 1 RATIO = 1.49934E+15.

               CONVERGENCE CHECKS FOR EQUILIBRIUM ITERATION     1


 AVERAGE FORCE                      2.114E+08   TIME AVG. FORCE       1.094E+08
 LARGEST RESIDUAL FORCE             3.622E-07   AT NODE          1   DOF  1
   INSTANCE: BLOCK-1                                                                         
 LARGEST INCREMENT OF DISP.        -1.000E-03   AT NODE          1   DOF  2
   INSTANCE: BLOCK-1                                                                         
 LARGEST CORRECTION TO DISP.        2.608E-08   AT NODE          3   DOF  1
   INSTANCE: BLOCK-1                                                                         
          THE FORCE     EQUILIBRIUM RESPONSE WAS LINEAR IN THIS INCREMENT

 ITERATION SUMMARY FOR THE INCREMENT:   1 TOTAL ITERATIONS, OF WHICH
   0 ARE SEVERE DISCONTINUITY ITERATIONS AND  1 ARE EQUILIBRIUM ITERATIONS.

 TIME INCREMENT COMPLETED  0.100    ,  FRACTION OF STEP COMPLETED  0.270    
 STEP TIME COMPLETED        2.70    ,  TOTAL TIME COMPLETED         2.70    


  INCREMENT    28 STARTS. ATTEMPT NUMBER  1, TIME INCREMENT  0.100    

  NUMBER OF EQUATIONS =        8     NUMBER OF FLOATING PT. OPERATIONS =  3.52E+02

     CHECK POINT   START OF SOLVER    

     CHECK POINT  END OF SOLVER       

       ELAPSED USER TIME (SEC)      =   0.0000    
       ELAPSED SYSTEM TIME (SEC)    =   0.0000    
       ELAPSED TOTAL CPU TIME (SEC) =   0.0000    
       ELAPSED WALLCLOCK TIME (SEC) =          0

 ***WARNING: SOLVER PROBLEM.  ZERO PIVOT WHEN PROCESSING NODE 3 INSTANCE 
             BLOCK-1 D.O.F. 1
  Typically a zero pivot is associated with an overconstraint in the model. 
 However, Abaqus was not able to indentify any chains of constraints that might 
 lead to an overconstraint at this node. This suggests that the model might be 
 in fact insufficiently constrained in this particular degree of freedom. 
 Please check the constraints used in this model. 


 ***WARNING: Solver problem. Zero pivot when processing D.O.F. 1 of 1 nodes. 
             The nodes have been identified in node set 
             WarnNodeSolvProbZeroPiv_1_1_28_1_1.

               CONVERGENCE CHECKS FOR EQUILIBRIUM ITERATION     1


 AVERAGE FORCE                      2.192E+08   TIME AVG. FORCE       1.133E+08
 LARGEST RESIDUAL FORCE             3.715E-07   AT NODE          1   DOF  1
   INSTANCE: BLOCK-1                                                                         
 LARGEST INCREMENT OF DISP.        -1.000E-03   AT NODE          1   DOF  2
   INSTANCE: BLOCK-1                                                                         
 LARGEST CORRECTION TO DISP.       -3.146E-08   AT NODE          2   DOF  1
   INSTANCE: BLOCK-1                                                                         
          THE FORCE     EQUILIBRIUM RESPONSE WAS LINEAR IN THIS INCREMENT

 ITERATION SUMMARY FOR THE INCREMENT:   1 TOTAL ITERATIONS, OF WHICH
   0 ARE SEVERE DISCONTINUITY ITERATIONS AND  1 ARE EQUILIBRIUM ITERATIONS.

 TIME INCREMENT COMPLETED  0.100    ,  FRACTION OF STEP COMPLETED  0.280    
 STEP TIME COMPLETED        2.80    ,  TOTAL TIME COMPLETED         2.80    


  INCREMENT    29 STARTS. ATTEMPT NUMBER  1, TIME INCREMENT  0.100    

  NUMBER OF EQUATIONS =        8     NUMBER OF FLOATING PT. OPERATIONS =  3.52E+02

     CHECK POINT   START OF SOLVER    

     CHECK POINT  END OF SOLVER       

       ELAPSED USER TIME (SEC)      =   0.0000    
       ELAPSED SYSTEM TIME (SEC)    =   0.0000    
       ELAPSED TOTAL CPU TIME (SEC) =   0.0000    
       ELAPSED WALLCLOCK TIME (SEC) =          0
 

 ***WARNING: SOLVER PROBLEM. NUMERICAL SINGULARITY WHEN PROCESSING NODE 
             BLOCK-1.3 D.O.F. 1 RATIO = 2.99812E+15.

               CONVERGENCE CHECKS FOR EQUILIBRIUM ITERATION     1


 AVERAGE FORCE                      2.271E+08   TIME AVG. FORCE       1.172E+08
 LARGEST RESIDUAL FORCE             3.714E-07   AT NODE          1   DOF  1
   INSTANCE: BLOCK-1                                                                         
 LARGEST INCREMENT OF DISP.        -1.000E-03   AT NODE          1   DOF  2
   INSTANCE: BLOCK-1                                                                         
 LARGEST CORRECTION TO DISP.       -2.402E-08   AT NODE          2   DOF  1
   INSTANCE: BLOCK-1                                                                         
          THE FORCE     EQUILIBRIUM RESPONSE WAS LINEAR IN THIS INCREMENT

 ITERATION SUMMARY FOR THE INCREMENT:   1 TOTAL ITERATIONS, OF WHICH
   0 ARE SEVERE DISCONTINUITY ITERATIONS AND  1 ARE EQUILIBRIUM ITERATIONS.

 TIME INCREMENT COMPLETED  0.100    ,  FRACTION OF STEP COMPLETED  0.290    
 STEP TIME COMPLETED        2.90    ,  TOTAL TIME COMPLETED         2.90    


  INCREMENT    30 STARTS. ATTEMPT NUMBER  1, TIME INCREMENT  0.100    

  NUMBER OF EQUATIONS =        8     NUMBER OF FLOATING PT. OPERATIONS =  3.52E+02

     CHECK POINT   START OF SOLVER    

     CHECK POINT  END OF SOLVER       

       ELAPSED USER TIME (SEC)      =   0.0000    
       ELAPSED SYSTEM TIME (SEC)    =   0.0000    
       ELAPSED TOTAL CPU TIME (SEC) =   0.0000    
       ELAPSED WALLCLOCK TIME (SEC) =          0
 

 ***WARNING: SOLVER PROBLEM. NUMERICAL SINGULARITY WHEN PROCESSING NODE 
             BLOCK-1.3 D.O.F. 1 RATIO = 1.49893E+15.

               CONVERGENCE CHECKS FOR EQUILIBRIUM ITERATION     1


 AVERAGE FORCE                      2.349E+08   TIME AVG. FORCE       1.212E+08
 LARGEST RESIDUAL FORCE             3.621E-07   AT NODE          1   DOF  1
   INSTANCE: BLOCK-1                                                                         
 LARGEST INCREMENT OF DISP.        -1.000E-03   AT NODE          1   DOF  2
   INSTANCE: BLOCK-1                                                                         
 LARGEST CORRECTION TO DISP.       -2.775E-08   AT NODE          1   DOF  1
   INSTANCE: BLOCK-1                                                                         
          THE FORCE     EQUILIBRIUM RESPONSE WAS LINEAR IN THIS INCREMENT

 ITERATION SUMMARY FOR THE INCREMENT:   1 TOTAL ITERATIONS, OF WHICH
   0 ARE SEVERE DISCONTINUITY ITERATIONS AND  1 ARE EQUILIBRIUM ITERATIONS.

 TIME INCREMENT COMPLETED  0.100    ,  FRACTION OF STEP COMPLETED  0.300    
 STEP TIME COMPLETED        3.00    ,  TOTAL TIME COMPLETED         3.00    


  INCREMENT    31 STARTS. ATTEMPT NUMBER  1, TIME INCREMENT  0.100    

  NUMBER OF EQUATIONS =        8     NUMBER OF FLOATING PT. OPERATIONS =  3.52E+02

     CHECK POINT   START OF SOLVER    

     CHECK POINT  END OF SOLVER       

       ELAPSED USER TIME (SEC)      =   0.0000    
       ELAPSED SYSTEM TIME (SEC)    =   0.0000    
       ELAPSED TOTAL CPU TIME (SEC) =   0.0000    
       ELAPSED WALLCLOCK TIME (SEC) =          0
 

 ***WARNING: SOLVER PROBLEM. NUMERICAL SINGULARITY WHEN PROCESSING NODE 
             BLOCK-1.3 D.O.F. 1 RATIO = 1.99839E+15.

               CONVERGENCE CHECKS FOR EQUILIBRIUM ITERATION     1


 AVERAGE FORCE                      2.428E+08   TIME AVG. FORCE       1.251E+08
 LARGEST RESIDUAL FORCE             3.714E-07   AT NODE          1   DOF  1
   INSTANCE: BLOCK-1                                                                         
 LARGEST INCREMENT OF DISP.        -1.000E-03   AT NODE          1   DOF  2
   INSTANCE: BLOCK-1                                                                         
 LARGEST CORRECTION TO DISP.       -2.651E-08   AT NODE          2   DOF  1
   INSTANCE: BLOCK-1                                                                         
          THE FORCE     EQUILIBRIUM RESPONSE WAS LINEAR IN THIS INCREMENT

 ITERATION SUMMARY FOR THE INCREMENT:   1 TOTAL ITERATIONS, OF WHICH
   0 ARE SEVERE DISCONTINUITY ITERATIONS AND  1 ARE EQUILIBRIUM ITERATIONS.

 TIME INCREMENT COMPLETED  0.100    ,  FRACTION OF STEP COMPLETED  0.310    
 STEP TIME COMPLETED        3.10    ,  TOTAL TIME COMPLETED         3.10    


  INCREMENT    32 STARTS. ATTEMPT NUMBER  1, TIME INCREMENT  0.100    

  NUMBER OF EQUATIONS =        8     NUMBER OF FLOATING PT. OPERATIONS =  3.52E+02

     CHECK POINT   START OF SOLVER    

     CHECK POINT  END OF SOLVER       

       ELAPSED USER TIME (SEC)      =   0.0000    
       ELAPSED SYSTEM TIME (SEC)    =   0.0000    
       ELAPSED TOTAL CPU TIME (SEC) =   0.0000    
       ELAPSED WALLCLOCK TIME (SEC) =          0
 

 ***WARNING: SOLVER PROBLEM. NUMERICAL SINGULARITY WHEN PROCESSING NODE 
             BLOCK-1.3 D.O.F. 1 RATIO = 1.99820E+15.

               CONVERGENCE CHECKS FOR EQUILIBRIUM ITERATION     1


 AVERAGE FORCE                      2.506E+08   TIME AVG. FORCE       1.290E+08
 LARGEST RESIDUAL FORCE             3.621E-07   AT NODE          1   DOF  1
   INSTANCE: BLOCK-1                                                                         
 LARGEST INCREMENT OF DISP.        -1.000E-03   AT NODE          1   DOF  2
   INSTANCE: BLOCK-1                                                                         
 LARGEST CORRECTION TO DISP.       -3.645E-08   AT NODE          2   DOF  1
   INSTANCE: BLOCK-1                                                                         
          THE FORCE     EQUILIBRIUM RESPONSE WAS LINEAR IN THIS INCREMENT

 ITERATION SUMMARY FOR THE INCREMENT:   1 TOTAL ITERATIONS, OF WHICH
   0 ARE SEVERE DISCONTINUITY ITERATIONS AND  1 ARE EQUILIBRIUM ITERATIONS.

 TIME INCREMENT COMPLETED  0.100    ,  FRACTION OF STEP COMPLETED  0.320    
 STEP TIME COMPLETED        3.20    ,  TOTAL TIME COMPLETED         3.20    


  INCREMENT    33 STARTS. ATTEMPT NUMBER  1, TIME INCREMENT  0.100    

  NUMBER OF EQUATIONS =        8     NUMBER OF FLOATING PT. OPERATIONS =  3.52E+02

     CHECK POINT   START OF SOLVER    

     CHECK POINT  END OF SOLVER       

       ELAPSED USER TIME (SEC)      =   0.0000    
       ELAPSED SYSTEM TIME (SEC)    =   0.0000    
       ELAPSED TOTAL CPU TIME (SEC) =   0.0000    
       ELAPSED WALLCLOCK TIME (SEC) =          0
 

 ***WARNING: SOLVER PROBLEM. NUMERICAL SINGULARITY WHEN PROCESSING NODE 
             BLOCK-1.3 D.O.F. 1 RATIO = 1.49852E+15.

               CONVERGENCE CHECKS FOR EQUILIBRIUM ITERATION     1


 AVERAGE FORCE                      2.585E+08   TIME AVG. FORCE       1.329E+08
 LARGEST RESIDUAL FORCE             3.806E-07   AT NODE          1   DOF  1
   INSTANCE: BLOCK-1                                                                         
 LARGEST INCREMENT OF DISP.        -1.000E-03   AT NODE          1   DOF  2
   INSTANCE: BLOCK-1                                                                         
 LARGEST CORRECTION TO DISP.       -1.659E-08   AT NODE          2   DOF  1
   INSTANCE: BLOCK-1                                                                         
          THE FORCE     EQUILIBRIUM RESPONSE WAS LINEAR IN THIS INCREMENT

 ITERATION SUMMARY FOR THE INCREMENT:   1 TOTAL ITERATIONS, OF WHICH
   0 ARE SEVERE DISCONTINUITY ITERATIONS AND  1 ARE EQUILIBRIUM ITERATIONS.

 TIME INCREMENT COMPLETED  0.100    ,  FRACTION OF STEP COMPLETED  0.330    
 STEP TIME COMPLETED        3.30    ,  TOTAL TIME COMPLETED         3.30    


  INCREMENT    34 STARTS. ATTEMPT NUMBER  1, TIME INCREMENT  0.100    

  NUMBER OF EQUATIONS =        8     NUMBER OF FLOATING PT. OPERATIONS =  3.52E+02

     CHECK POINT   START OF SOLVER    

     CHECK POINT  END OF SOLVER       

       ELAPSED USER TIME (SEC)      =   0.0000    
       ELAPSED SYSTEM TIME (SEC)    =   0.0000    
       ELAPSED TOTAL CPU TIME (SEC) =   0.0000    
       ELAPSED WALLCLOCK TIME (SEC) =          0
 

 ***WARNING: SOLVER PROBLEM. NUMERICAL SINGULARITY WHEN PROCESSING NODE 
             BLOCK-1.3 D.O.F. 1 RATIO = 5.99352E+15.

               CONVERGENCE CHECKS FOR EQUILIBRIUM ITERATION     1


 AVERAGE FORCE                      2.663E+08   TIME AVG. FORCE       1.368E+08
 LARGEST RESIDUAL FORCE             3.713E-07   AT NODE          1   DOF  1
   INSTANCE: BLOCK-1                                                                         
 LARGEST INCREMENT OF DISP.        -1.000E-03   AT NODE          1   DOF  2
   INSTANCE: BLOCK-1                                                                         
 LARGEST CORRECTION TO DISP.       -4.640E-08   AT NODE          1   DOF  1
   INSTANCE: BLOCK-1                                                                         
          THE FORCE     EQUILIBRIUM RESPONSE WAS LINEAR IN THIS INCREMENT

 ITERATION SUMMARY FOR THE INCREMENT:   1 TOTAL ITERATIONS, OF WHICH
   0 ARE SEVERE DISCONTINUITY ITERATIONS AND  1 ARE EQUILIBRIUM ITERATIONS.

 TIME INCREMENT COMPLETED  0.100    ,  FRACTION OF STEP COMPLETED  0.340    
 STEP TIME COMPLETED        3.40    ,  TOTAL TIME COMPLETED         3.40    


  INCREMENT    35 STARTS. ATTEMPT NUMBER  1, TIME INCREMENT  0.100    

  NUMBER OF EQUATIONS =        8     NUMBER OF FLOATING PT. OPERATIONS =  3.52E+02

     CHECK POINT   START OF SOLVER    

     CHECK POINT  END OF SOLVER       

       ELAPSED USER TIME (SEC)      =   0.0000    
       ELAPSED SYSTEM TIME (SEC)    =   0.0000    
       ELAPSED TOTAL CPU TIME (SEC) =   0.0000    
       ELAPSED WALLCLOCK TIME (SEC) =          0
 

 ***WARNING: SOLVER PROBLEM. NUMERICAL SINGULARITY WHEN PROCESSING NODE 
             BLOCK-1.3 D.O.F. 1 RATIO = 5.99297E+15.

               CONVERGENCE CHECKS FOR EQUILIBRIUM ITERATION     1


 AVERAGE FORCE                      2.742E+08   TIME AVG. FORCE       1.408E+08
 LARGEST RESIDUAL FORCE             3.712E-07   AT NODE          1   DOF  1
   INSTANCE: BLOCK-1                                                                         
 LARGEST INCREMENT OF DISP.        -1.000E-03   AT NODE          1   DOF  2
   INSTANCE: BLOCK-1                                                                         
 LARGEST CORRECTION TO DISP.        4.470E-08   AT NODE          4   DOF  1
   INSTANCE: BLOCK-1                                                                         
          THE FORCE     EQUILIBRIUM RESPONSE WAS LINEAR IN THIS INCREMENT

 ITERATION SUMMARY FOR THE INCREMENT:   1 TOTAL ITERATIONS, OF WHICH
   0 ARE SEVERE DISCONTINUITY ITERATIONS AND  1 ARE EQUILIBRIUM ITERATIONS.

 TIME INCREMENT COMPLETED  0.100    ,  FRACTION OF STEP COMPLETED  0.350    
 STEP TIME COMPLETED        3.50    ,  TOTAL TIME COMPLETED         3.50    


  INCREMENT    36 STARTS. ATTEMPT NUMBER  1, TIME INCREMENT  0.100    

  NUMBER OF EQUATIONS =        8     NUMBER OF FLOATING PT. OPERATIONS =  3.52E+02

     CHECK POINT   START OF SOLVER    

     CHECK POINT  END OF SOLVER       

       ELAPSED USER TIME (SEC)      =  0.10000    
       ELAPSED SYSTEM TIME (SEC)    =   0.0000    
       ELAPSED TOTAL CPU TIME (SEC) =  0.10000    
       ELAPSED WALLCLOCK TIME (SEC) =          0
 

 ***WARNING: SOLVER PROBLEM. NUMERICAL SINGULARITY WHEN PROCESSING NODE 
             BLOCK-1.3 D.O.F. 1 RATIO = 5.99242E+15.

               CONVERGENCE CHECKS FOR EQUILIBRIUM ITERATION     1


 AVERAGE FORCE                      2.820E+08   TIME AVG. FORCE       1.447E+08
 LARGEST RESIDUAL FORCE             3.712E-07   AT NODE          1   DOF  1
   INSTANCE: BLOCK-1                                                                         
 LARGEST INCREMENT OF DISP.        -1.000E-03   AT NODE          1   DOF  2
   INSTANCE: BLOCK-1                                                                         
 LARGEST CORRECTION TO DISP.       -3.152E-08   AT NODE          2   DOF  1
   INSTANCE: BLOCK-1                                                                         
          THE FORCE     EQUILIBRIUM RESPONSE WAS LINEAR IN THIS INCREMENT

 ITERATION SUMMARY FOR THE INCREMENT:   1 TOTAL ITERATIONS, OF WHICH
   0 ARE SEVERE DISCONTINUITY ITERATIONS AND  1 ARE EQUILIBRIUM ITERATIONS.

 TIME INCREMENT COMPLETED  0.100    ,  FRACTION OF STEP COMPLETED  0.360    
 STEP TIME COMPLETED        3.60    ,  TOTAL TIME COMPLETED         3.60    


  INCREMENT    37 STARTS. ATTEMPT NUMBER  1, TIME INCREMENT  0.100    

  NUMBER OF EQUATIONS =        8     NUMBER OF FLOATING PT. OPERATIONS =  3.52E+02

     CHECK POINT   START OF SOLVER    

     CHECK POINT  END OF SOLVER       

       ELAPSED USER TIME (SEC)      =   0.0000    
       ELAPSED SYSTEM TIME (SEC)    =   0.0000    
       ELAPSED TOTAL CPU TIME (SEC) =   0.0000    
       ELAPSED WALLCLOCK TIME (SEC) =          0
 

 ***WARNING: SOLVER PROBLEM. NUMERICAL SINGULARITY WHEN PROCESSING NODE 
             BLOCK-1.3 D.O.F. 1 RATIO = 5.99188E+15.

               CONVERGENCE CHECKS FOR EQUILIBRIUM ITERATION     1


 AVERAGE FORCE                      2.899E+08   TIME AVG. FORCE       1.486E+08
 LARGEST RESIDUAL FORCE             3.712E-07   AT NODE          1   DOF  1
   INSTANCE: BLOCK-1                                                                         
 LARGEST INCREMENT OF DISP.        -1.000E-03   AT NODE          1   DOF  2
   INSTANCE: BLOCK-1                                                                         
 LARGEST CORRECTION TO DISP.       -3.152E-08   AT NODE          2   DOF  1
   INSTANCE: BLOCK-1                                                                         
          THE FORCE     EQUILIBRIUM RESPONSE WAS LINEAR IN THIS INCREMENT

 ITERATION SUMMARY FOR THE INCREMENT:   1 TOTAL ITERATIONS, OF WHICH
   0 ARE SEVERE DISCONTINUITY ITERATIONS AND  1 ARE EQUILIBRIUM ITERATIONS.

 TIME INCREMENT COMPLETED  0.100    ,  FRACTION OF STEP COMPLETED  0.370    
 STEP TIME COMPLETED        3.70    ,  TOTAL TIME COMPLETED         3.70    


  INCREMENT    38 STARTS. ATTEMPT NUMBER  1, TIME INCREMENT  0.100    

  NUMBER OF EQUATIONS =        8     NUMBER OF FLOATING PT. OPERATIONS =  3.52E+02

     CHECK POINT   START OF SOLVER    

     CHECK POINT  END OF SOLVER       

       ELAPSED USER TIME (SEC)      =   0.0000    
       ELAPSED SYSTEM TIME (SEC)    =   0.0000    
       ELAPSED TOTAL CPU TIME (SEC) =   0.0000    
       ELAPSED WALLCLOCK TIME (SEC) =          0
 

 ***WARNING: SOLVER PROBLEM. NUMERICAL SINGULARITY WHEN PROCESSING NODE 
             BLOCK-1.3 D.O.F. 1 RATIO = 1.99711E+15.

               CONVERGENCE CHECKS FOR EQUILIBRIUM ITERATION     1


 AVERAGE FORCE                      2.977E+08   TIME AVG. FORCE       1.525E+08
 LARGEST RESIDUAL FORCE             3.618E-07   AT NODE          1   DOF  1
   INSTANCE: BLOCK-1                                                                         
 LARGEST INCREMENT OF DISP.        -1.000E-03   AT NODE          1   DOF  2
   INSTANCE: BLOCK-1                                                                         
 LARGEST CORRECTION TO DISP.        1.987E-08   AT NODE          4   DOF  1
   INSTANCE: BLOCK-1                                                                         
          THE FORCE     EQUILIBRIUM RESPONSE WAS LINEAR IN THIS INCREMENT

 ITERATION SUMMARY FOR THE INCREMENT:   1 TOTAL ITERATIONS, OF WHICH
   0 ARE SEVERE DISCONTINUITY ITERATIONS AND  1 ARE EQUILIBRIUM ITERATIONS.

 TIME INCREMENT COMPLETED  0.100    ,  FRACTION OF STEP COMPLETED  0.380    
 STEP TIME COMPLETED        3.80    ,  TOTAL TIME COMPLETED         3.80    


  INCREMENT    39 STARTS. ATTEMPT NUMBER  1, TIME INCREMENT  0.100    

  NUMBER OF EQUATIONS =        8     NUMBER OF FLOATING PT. OPERATIONS =  3.52E+02

     CHECK POINT   START OF SOLVER    

     CHECK POINT  END OF SOLVER       

       ELAPSED USER TIME (SEC)      =   0.0000    
       ELAPSED SYSTEM TIME (SEC)    =   0.0000    
       ELAPSED TOTAL CPU TIME (SEC) =   0.0000    
       ELAPSED WALLCLOCK TIME (SEC) =          0
 

 ***WARNING: SOLVER PROBLEM. NUMERICAL SINGULARITY WHEN PROCESSING NODE 
             BLOCK-1.3 D.O.F. 1 RATIO = 5.99078E+15.

               CONVERGENCE CHECKS FOR EQUILIBRIUM ITERATION     1


 AVERAGE FORCE                      3.056E+08   TIME AVG. FORCE       1.565E+08
 LARGEST RESIDUAL FORCE             3.618E-07   AT NODE          1   DOF  1
   INSTANCE: BLOCK-1                                                                         
 LARGEST INCREMENT OF DISP.        -1.000E-03   AT NODE          1   DOF  2
   INSTANCE: BLOCK-1                                                                         
 LARGEST CORRECTION TO DISP.       -4.644E-08   AT NODE          2   DOF  1
   INSTANCE: BLOCK-1                                                                         
          THE FORCE     EQUILIBRIUM RESPONSE WAS LINEAR IN THIS INCREMENT

 ITERATION SUMMARY FOR THE INCREMENT:   1 TOTAL ITERATIONS, OF WHICH
   0 ARE SEVERE DISCONTINUITY ITERATIONS AND  1 ARE EQUILIBRIUM ITERATIONS.

 TIME INCREMENT COMPLETED  0.100    ,  FRACTION OF STEP COMPLETED  0.390    
 STEP TIME COMPLETED        3.90    ,  TOTAL TIME COMPLETED         3.90    


  INCREMENT    40 STARTS. ATTEMPT NUMBER  1, TIME INCREMENT  0.100    

  NUMBER OF EQUATIONS =        8     NUMBER OF FLOATING PT. OPERATIONS =  3.52E+02

     CHECK POINT   START OF SOLVER    

     CHECK POINT  END OF SOLVER       

       ELAPSED USER TIME (SEC)      =   0.0000    
       ELAPSED SYSTEM TIME (SEC)    =   0.0000    
       ELAPSED TOTAL CPU TIME (SEC) =   0.0000    
       ELAPSED WALLCLOCK TIME (SEC) =          0
 

 ***WARNING: SOLVER PROBLEM. NUMERICAL SINGULARITY WHEN PROCESSING NODE 
             BLOCK-1.3 D.O.F. 1 RATIO = 1.99675E+15.

               CONVERGENCE CHECKS FOR EQUILIBRIUM ITERATION     1


 AVERAGE FORCE                      3.135E+08   TIME AVG. FORCE       1.604E+08
 LARGEST RESIDUAL FORCE             3.618E-07   AT NODE          1   DOF  1
   INSTANCE: BLOCK-1                                                                         
 LARGEST INCREMENT OF DISP.        -1.000E-03   AT NODE          1   DOF  2
   INSTANCE: BLOCK-1                                                                         
 LARGEST CORRECTION TO DISP.        2.980E-08   AT NODE          3   DOF  1
   INSTANCE: BLOCK-1                                                                         
          THE FORCE     EQUILIBRIUM RESPONSE WAS LINEAR IN THIS INCREMENT

 ITERATION SUMMARY FOR THE INCREMENT:   1 TOTAL ITERATIONS, OF WHICH
   0 ARE SEVERE DISCONTINUITY ITERATIONS AND  1 ARE EQUILIBRIUM ITERATIONS.

 TIME INCREMENT COMPLETED  0.100    ,  FRACTION OF STEP COMPLETED  0.400    
 STEP TIME COMPLETED        4.00    ,  TOTAL TIME COMPLETED         4.00    


  INCREMENT    41 STARTS. ATTEMPT NUMBER  1, TIME INCREMENT  0.100    

  NUMBER OF EQUATIONS =        8     NUMBER OF FLOATING PT. OPERATIONS =  3.52E+02

     CHECK POINT   START OF SOLVER    

     CHECK POINT  END OF SOLVER       

       ELAPSED USER TIME (SEC)      =  0.10000    
       ELAPSED SYSTEM TIME (SEC)    =   0.0000    
       ELAPSED TOTAL CPU TIME (SEC) =  0.10000    
       ELAPSED WALLCLOCK TIME (SEC) =          0

 ***WARNING: SOLVER PROBLEM.  ZERO PIVOT WHEN PROCESSING NODE 3 INSTANCE 
             BLOCK-1 D.O.F. 1
  Typically a zero pivot is associated with an overconstraint in the model. 
 However, Abaqus was not able to indentify any chains of constraints that might 
 lead to an overconstraint at this node. This suggests that the model might be 
 in fact insufficiently constrained in this particular degree of freedom. 
 Please check the constraints used in this model. 


 ***WARNING: Solver problem. Zero pivot when processing D.O.F. 1 of 1 nodes. 
             The nodes have been identified in node set 
             WarnNodeSolvProbZeroPiv_1_1_41_1_1.

               CONVERGENCE CHECKS FOR EQUILIBRIUM ITERATION     1


 AVERAGE FORCE                      3.213E+08   TIME AVG. FORCE       1.643E+08
 LARGEST RESIDUAL FORCE             3.710E-07   AT NODE          1   DOF  1
   INSTANCE: BLOCK-1                                                                         
 LARGEST INCREMENT OF DISP.        -1.000E-03   AT NODE          1   DOF  2
   INSTANCE: BLOCK-1                                                                         
 LARGEST CORRECTION TO DISP.       -3.155E-08   AT NODE          2   DOF  1
   INSTANCE: BLOCK-1                                                                         
          THE FORCE     EQUILIBRIUM RESPONSE WAS LINEAR IN THIS INCREMENT

 ITERATION SUMMARY FOR THE INCREMENT:   1 TOTAL ITERATIONS, OF WHICH
   0 ARE SEVERE DISCONTINUITY ITERATIONS AND  1 ARE EQUILIBRIUM ITERATIONS.

 TIME INCREMENT COMPLETED  0.100    ,  FRACTION OF STEP COMPLETED  0.410    
 STEP TIME COMPLETED        4.10    ,  TOTAL TIME COMPLETED         4.10    


  INCREMENT    42 STARTS. ATTEMPT NUMBER  1, TIME INCREMENT  0.100    

  NUMBER OF EQUATIONS =        8     NUMBER OF FLOATING PT. OPERATIONS =  3.52E+02

     CHECK POINT   START OF SOLVER    

     CHECK POINT  END OF SOLVER       

       ELAPSED USER TIME (SEC)      =   0.0000    
       ELAPSED SYSTEM TIME (SEC)    =   0.0000    
       ELAPSED TOTAL CPU TIME (SEC) =   0.0000    
       ELAPSED WALLCLOCK TIME (SEC) =          0
 

 ***WARNING: SOLVER PROBLEM. NUMERICAL SINGULARITY WHEN PROCESSING NODE 
             BLOCK-1.3 D.O.F. 1 RATIO = 1.99638E+15.

               CONVERGENCE CHECKS FOR EQUILIBRIUM ITERATION     1


 AVERAGE FORCE                      3.292E+08   TIME AVG. FORCE       1.682E+08
 LARGEST RESIDUAL FORCE             3.710E-07   AT NODE          1   DOF  1
   INSTANCE: BLOCK-1                                                                         
 LARGEST INCREMENT OF DISP.        -1.000E-03   AT NODE          1   DOF  2
   INSTANCE: BLOCK-1                                                                         
 LARGEST CORRECTION TO DISP.       -3.653E-08   AT NODE          2   DOF  1
   INSTANCE: BLOCK-1                                                                         
          THE FORCE     EQUILIBRIUM RESPONSE WAS LINEAR IN THIS INCREMENT

 ITERATION SUMMARY FOR THE INCREMENT:   1 TOTAL ITERATIONS, OF WHICH
   0 ARE SEVERE DISCONTINUITY ITERATIONS AND  1 ARE EQUILIBRIUM ITERATIONS.

 TIME INCREMENT COMPLETED  0.100    ,  FRACTION OF STEP COMPLETED  0.420    
 STEP TIME COMPLETED        4.20    ,  TOTAL TIME COMPLETED         4.20    


  INCREMENT    43 STARTS. ATTEMPT NUMBER  1, TIME INCREMENT  0.100    

  NUMBER OF EQUATIONS =        8     NUMBER OF FLOATING PT. OPERATIONS =  3.52E+02

     CHECK POINT   START OF SOLVER    

     CHECK POINT  END OF SOLVER       

       ELAPSED USER TIME (SEC)      =   0.0000    
       ELAPSED SYSTEM TIME (SEC)    =   0.0000    
       ELAPSED TOTAL CPU TIME (SEC) =   0.0000    
       ELAPSED WALLCLOCK TIME (SEC) =          0
 

 ***WARNING: SOLVER PROBLEM. NUMERICAL SINGULARITY WHEN PROCESSING NODE 
             BLOCK-1.3 D.O.F. 1 RATIO = 1.49715E+15.

               CONVERGENCE CHECKS FOR EQUILIBRIUM ITERATION     1


 AVERAGE FORCE                      3.370E+08   TIME AVG. FORCE       1.722E+08
 LARGEST RESIDUAL FORCE             3.709E-07   AT NODE          1   DOF  1
   INSTANCE: BLOCK-1                                                                         
 LARGEST INCREMENT OF DISP.        -1.000E-03   AT NODE          1   DOF  2
   INSTANCE: BLOCK-1                                                                         
 LARGEST CORRECTION TO DISP.        1.863E-08   AT NODE          3   DOF  1
   INSTANCE: BLOCK-1                                                                         
          THE FORCE     EQUILIBRIUM RESPONSE WAS LINEAR IN THIS INCREMENT

 ITERATION SUMMARY FOR THE INCREMENT:   1 TOTAL ITERATIONS, OF WHICH
[...]
 

 ***WARNING: SOLVER PROBLEM. NUMERICAL SINGULARITY WHEN PROCESSING NODE 
             BLOCK-1.3 D.O.F. 1 RATIO = 5.96290E+15.

               CONVERGENCE CHECKS FOR EQUILIBRIUM ITERATION     1


 AVERAGE FORCE                      7.079E+08   TIME AVG. FORCE       3.571E+08
 LARGEST RESIDUAL FORCE             4.062E-07   AT NODE          1   DOF  1
   INSTANCE: BLOCK-1                                                                         
 LARGEST INCREMENT OF DISP.        -1.000E-03   AT NODE          1   DOF  2
   INSTANCE: BLOCK-1                                                                         
 LARGEST CORRECTION TO DISP.        2.980E-08   AT NODE          3   DOF  1
   INSTANCE: BLOCK-1                                                                         
          THE FORCE     EQUILIBRIUM RESPONSE WAS LINEAR IN THIS INCREMENT

 ITERATION SUMMARY FOR THE INCREMENT:   1 TOTAL ITERATIONS, OF WHICH
   0 ARE SEVERE DISCONTINUITY ITERATIONS AND  1 ARE EQUILIBRIUM ITERATIONS.

 TIME INCREMENT COMPLETED  0.100    ,  FRACTION OF STEP COMPLETED  0.900    
 STEP TIME COMPLETED        9.00    ,  TOTAL TIME COMPLETED         9.00    


  INCREMENT    91 STARTS. ATTEMPT NUMBER  1, TIME INCREMENT  0.100    

  NUMBER OF EQUATIONS =        8     NUMBER OF FLOATING PT. OPERATIONS =  3.52E+02

     CHECK POINT   START OF SOLVER    

     CHECK POINT  END OF SOLVER       

       ELAPSED USER TIME (SEC)      =   0.0000    
       ELAPSED SYSTEM TIME (SEC)    =   0.0000    
       ELAPSED TOTAL CPU TIME (SEC) =   0.0000    
       ELAPSED WALLCLOCK TIME (SEC) =          0
 

 ***WARNING: SOLVER PROBLEM. NUMERICAL SINGULARITY WHEN PROCESSING NODE 
             BLOCK-1.3 D.O.F. 1 RATIO = 1.98745E+15.

               CONVERGENCE CHECKS FOR EQUILIBRIUM ITERATION     1


 AVERAGE FORCE                      7.159E+08   TIME AVG. FORCE       3.610E+08
 LARGEST RESIDUAL FORCE             4.062E-07   AT NODE          1   DOF  1
   INSTANCE: BLOCK-1                                                                         
 LARGEST INCREMENT OF DISP.        -1.000E-03   AT NODE          1   DOF  2
   INSTANCE: BLOCK-1                                                                         
 LARGEST CORRECTION TO DISP.        2.484E-08   AT NODE          4   DOF  1
   INSTANCE: BLOCK-1                                                                         
          THE FORCE     EQUILIBRIUM RESPONSE WAS LINEAR IN THIS INCREMENT

 ITERATION SUMMARY FOR THE INCREMENT:   1 TOTAL ITERATIONS, OF WHICH
   0 ARE SEVERE DISCONTINUITY ITERATIONS AND  1 ARE EQUILIBRIUM ITERATIONS.

 TIME INCREMENT COMPLETED  0.100    ,  FRACTION OF STEP COMPLETED  0.910    
 STEP TIME COMPLETED        9.10    ,  TOTAL TIME COMPLETED         9.10    


  INCREMENT    92 STARTS. ATTEMPT NUMBER  1, TIME INCREMENT  0.100    

  NUMBER OF EQUATIONS =        8     NUMBER OF FLOATING PT. OPERATIONS =  3.52E+02

     CHECK POINT   START OF SOLVER    

     CHECK POINT  END OF SOLVER       

       ELAPSED USER TIME (SEC)      =   0.0000    
       ELAPSED SYSTEM TIME (SEC)    =   0.0000    
       ELAPSED TOTAL CPU TIME (SEC) =   0.0000    
       ELAPSED WALLCLOCK TIME (SEC) =          0

 ***WARNING: SOLVER PROBLEM.  ZERO PIVOT WHEN PROCESSING NODE 3 INSTANCE 
             BLOCK-1 D.O.F. 1
  Typically a zero pivot is associated with an overconstraint in the model. 
 However, Abaqus was not able to indentify any chains of constraints that might 
 lead to an overconstraint at this node. This suggests that the model might be 
 in fact insufficiently constrained in this particular degree of freedom. 
 Please check the constraints used in this model. 


 ***WARNING: Solver problem. Zero pivot when processing D.O.F. 1 of 1 nodes. 
             The nodes have been identified in node set 
             WarnNodeSolvProbZeroPiv_1_1_92_1_1.

               CONVERGENCE CHECKS FOR EQUILIBRIUM ITERATION     1


 AVERAGE FORCE                      7.238E+08   TIME AVG. FORCE       3.649E+08
 LARGEST RESIDUAL FORCE             3.322E-07   AT NODE          1   DOF  1
   INSTANCE: BLOCK-1                                                                         
 LARGEST INCREMENT OF DISP.        -1.000E-03   AT NODE          1   DOF  2
   INSTANCE: BLOCK-1                                                                         
 LARGEST CORRECTION TO DISP.       -3.192E-08   AT NODE          2   DOF  1
   INSTANCE: BLOCK-1                                                                         
          THE FORCE     EQUILIBRIUM RESPONSE WAS LINEAR IN THIS INCREMENT

 ITERATION SUMMARY FOR THE INCREMENT:   1 TOTAL ITERATIONS, OF WHICH
   0 ARE SEVERE DISCONTINUITY ITERATIONS AND  1 ARE EQUILIBRIUM ITERATIONS.

 TIME INCREMENT COMPLETED  0.100    ,  FRACTION OF STEP COMPLETED  0.920    
 STEP TIME COMPLETED        9.20    ,  TOTAL TIME COMPLETED         9.20    


  INCREMENT    93 STARTS. ATTEMPT NUMBER  1, TIME INCREMENT  0.100    

  NUMBER OF EQUATIONS =        8     NUMBER OF FLOATING PT. OPERATIONS =  3.52E+02

     CHECK POINT   START OF SOLVER    

     CHECK POINT  END OF SOLVER       

       ELAPSED USER TIME (SEC)      =   0.0000    
       ELAPSED SYSTEM TIME (SEC)    =   0.0000    
       ELAPSED TOTAL CPU TIME (SEC) =   0.0000    
       ELAPSED WALLCLOCK TIME (SEC) =          0
 

 ***WARNING: SOLVER PROBLEM. NUMERICAL SINGULARITY WHEN PROCESSING NODE 
             BLOCK-1.3 D.O.F. 1 RATIO = 2.98063E+15.

               CONVERGENCE CHECKS FOR EQUILIBRIUM ITERATION     1


 AVERAGE FORCE                      7.317E+08   TIME AVG. FORCE       3.689E+08
 LARGEST RESIDUAL FORCE             4.061E-07   AT NODE          1   DOF  1
   INSTANCE: BLOCK-1                                                                         
 LARGEST INCREMENT OF DISP.        -1.000E-03   AT NODE          1   DOF  2
   INSTANCE: BLOCK-1                                                                         
 LARGEST CORRECTION TO DISP.       -1.702E-08   AT NODE          1   DOF  1
   INSTANCE: BLOCK-1                                                                         
          THE FORCE     EQUILIBRIUM RESPONSE WAS LINEAR IN THIS INCREMENT

 ITERATION SUMMARY FOR THE INCREMENT:   1 TOTAL ITERATIONS, OF WHICH
   0 ARE SEVERE DISCONTINUITY ITERATIONS AND  1 ARE EQUILIBRIUM ITERATIONS.

 TIME INCREMENT COMPLETED  0.100    ,  FRACTION OF STEP COMPLETED  0.930    
 STEP TIME COMPLETED        9.30    ,  TOTAL TIME COMPLETED         9.30    


  INCREMENT    94 STARTS. ATTEMPT NUMBER  1, TIME INCREMENT  0.100    

  NUMBER OF EQUATIONS =        8     NUMBER OF FLOATING PT. OPERATIONS =  3.52E+02

     CHECK POINT   START OF SOLVER    

     CHECK POINT  END OF SOLVER       

       ELAPSED USER TIME (SEC)      =   0.0000    
       ELAPSED SYSTEM TIME (SEC)    =   0.0000    
       ELAPSED TOTAL CPU TIME (SEC) =   0.0000    
       ELAPSED WALLCLOCK TIME (SEC) =          0
 

 ***WARNING: SOLVER PROBLEM. NUMERICAL SINGULARITY WHEN PROCESSING NODE 
             BLOCK-1.3 D.O.F. 1 RATIO = 5.96071E+15.

               CONVERGENCE CHECKS FOR EQUILIBRIUM ITERATION     1


 AVERAGE FORCE                      7.396E+08   TIME AVG. FORCE       3.728E+08
 LARGEST RESIDUAL FORCE             3.691E-07   AT NODE          2   DOF  1
   INSTANCE: BLOCK-1                                                                         
 LARGEST INCREMENT OF DISP.        -1.000E-03   AT NODE          1   DOF  2
   INSTANCE: BLOCK-1                                                                         
 LARGEST CORRECTION TO DISP.       -3.193E-08   AT NODE          2   DOF  1
   INSTANCE: BLOCK-1                                                                         
          THE FORCE     EQUILIBRIUM RESPONSE WAS LINEAR IN THIS INCREMENT

 ITERATION SUMMARY FOR THE INCREMENT:   1 TOTAL ITERATIONS, OF WHICH
   0 ARE SEVERE DISCONTINUITY ITERATIONS AND  1 ARE EQUILIBRIUM ITERATIONS.

 TIME INCREMENT COMPLETED  0.100    ,  FRACTION OF STEP COMPLETED  0.940    
 STEP TIME COMPLETED        9.40    ,  TOTAL TIME COMPLETED         9.40    


  INCREMENT    95 STARTS. ATTEMPT NUMBER  1, TIME INCREMENT  0.100    

  NUMBER OF EQUATIONS =        8     NUMBER OF FLOATING PT. OPERATIONS =  3.52E+02

     CHECK POINT   START OF SOLVER    

     CHECK POINT  END OF SOLVER       

       ELAPSED USER TIME (SEC)      =   0.0000    
       ELAPSED SYSTEM TIME (SEC)    =   0.0000    
       ELAPSED TOTAL CPU TIME (SEC) =   0.0000    
       ELAPSED WALLCLOCK TIME (SEC) =          0

 ***WARNING: SOLVER PROBLEM.  ZERO PIVOT WHEN PROCESSING NODE 3 INSTANCE 
             BLOCK-1 D.O.F. 1
  Typically a zero pivot is associated with an overconstraint in the model. 
 However, Abaqus was not able to indentify any chains of constraints that might 
 lead to an overconstraint at this node. This suggests that the model might be 
 in fact insufficiently constrained in this particular degree of freedom. 
 Please check the constraints used in this model. 


 ***WARNING: Solver problem. Zero pivot when processing D.O.F. 1 of 1 nodes. 
             The nodes have been identified in node set 
             WarnNodeSolvProbZeroPiv_1_1_95_1_1.

               CONVERGENCE CHECKS FOR EQUILIBRIUM ITERATION     1


 AVERAGE FORCE                      7.475E+08   TIME AVG. FORCE       3.768E+08
 LARGEST RESIDUAL FORCE             3.691E-07   AT NODE          1   DOF  1
   INSTANCE: BLOCK-1                                                                         
 LARGEST INCREMENT OF DISP.        -1.000E-03   AT NODE          1   DOF  2
   INSTANCE: BLOCK-1                                                                         
 LARGEST CORRECTION TO DISP.       -3.194E-08   AT NODE          1   DOF  1
   INSTANCE: BLOCK-1                                                                         
          THE FORCE     EQUILIBRIUM RESPONSE WAS LINEAR IN THIS INCREMENT

 ITERATION SUMMARY FOR THE INCREMENT:   1 TOTAL ITERATIONS, OF WHICH
   0 ARE SEVERE DISCONTINUITY ITERATIONS AND  1 ARE EQUILIBRIUM ITERATIONS.

 TIME INCREMENT COMPLETED  0.100    ,  FRACTION OF STEP COMPLETED  0.950    
 STEP TIME COMPLETED        9.50    ,  TOTAL TIME COMPLETED         9.50    


  INCREMENT    96 STARTS. ATTEMPT NUMBER  1, TIME INCREMENT  0.100    

  NUMBER OF EQUATIONS =        8     NUMBER OF FLOATING PT. OPERATIONS =  3.52E+02

     CHECK POINT   START OF SOLVER    

     CHECK POINT  END OF SOLVER       

       ELAPSED USER TIME (SEC)      =   0.0000    
       ELAPSED SYSTEM TIME (SEC)    =   0.0000    
       ELAPSED TOTAL CPU TIME (SEC) =   0.0000    
       ELAPSED WALLCLOCK TIME (SEC) =          0

 ***WARNING: SOLVER PROBLEM.  ZERO PIVOT WHEN PROCESSING NODE 3 INSTANCE 
             BLOCK-1 D.O.F. 1
  Typically a zero pivot is associated with an overconstraint in the model. 
 However, Abaqus was not able to indentify any chains of constraints that might 
 lead to an overconstraint at this node. This suggests that the model might be 
 in fact insufficiently constrained in this particular degree of freedom. 
 Please check the constraints used in this model. 


 ***WARNING: Solver problem. Zero pivot when processing D.O.F. 1 of 1 nodes. 
             The nodes have been identified in node set 
             WarnNodeSolvProbZeroPiv_1_1_96_1_1.

               CONVERGENCE CHECKS FOR EQUILIBRIUM ITERATION     1


 AVERAGE FORCE                      7.555E+08   TIME AVG. FORCE       3.807E+08
 LARGEST RESIDUAL FORCE             4.058E-07   AT NODE          1   DOF  1
   INSTANCE: BLOCK-1                                                                         
 LARGEST INCREMENT OF DISP.        -1.000E-03   AT NODE          1   DOF  2
   INSTANCE: BLOCK-1                                                                         
 LARGEST CORRECTION TO DISP.       -3.195E-08   AT NODE          2   DOF  1
   INSTANCE: BLOCK-1                                                                         
          THE FORCE     EQUILIBRIUM RESPONSE WAS LINEAR IN THIS INCREMENT

 ITERATION SUMMARY FOR THE INCREMENT:   1 TOTAL ITERATIONS, OF WHICH
   0 ARE SEVERE DISCONTINUITY ITERATIONS AND  1 ARE EQUILIBRIUM ITERATIONS.

 TIME INCREMENT COMPLETED  0.100    ,  FRACTION OF STEP COMPLETED  0.960    
 STEP TIME COMPLETED        9.60    ,  TOTAL TIME COMPLETED         9.60    


  INCREMENT    97 STARTS. ATTEMPT NUMBER  1, TIME INCREMENT  0.100    

  NUMBER OF EQUATIONS =        8     NUMBER OF FLOATING PT. OPERATIONS =  3.52E+02

     CHECK POINT   START OF SOLVER    

     CHECK POINT  END OF SOLVER       

       ELAPSED USER TIME (SEC)      =   0.0000    
       ELAPSED SYSTEM TIME (SEC)    =   0.0000    
       ELAPSED TOTAL CPU TIME (SEC) =   0.0000    
       ELAPSED WALLCLOCK TIME (SEC) =          0
 

 ***WARNING: SOLVER PROBLEM. NUMERICAL SINGULARITY WHEN PROCESSING NODE 
             BLOCK-1.3 D.O.F. 1 RATIO = 2.97953E+15.

               CONVERGENCE CHECKS FOR EQUILIBRIUM ITERATION     1


 AVERAGE FORCE                      7.634E+08   TIME AVG. FORCE       3.847E+08
 LARGEST RESIDUAL FORCE             3.690E-07   AT NODE          1   DOF  1
   INSTANCE: BLOCK-1                                                                         
 LARGEST INCREMENT OF DISP.        -1.000E-03   AT NODE          1   DOF  2
   INSTANCE: BLOCK-1                                                                         
 LARGEST CORRECTION TO DISP.        2.235E-08   AT NODE          4   DOF  1
   INSTANCE: BLOCK-1                                                                         
          THE FORCE     EQUILIBRIUM RESPONSE WAS LINEAR IN THIS INCREMENT

 ITERATION SUMMARY FOR THE INCREMENT:   1 TOTAL ITERATIONS, OF WHICH
   0 ARE SEVERE DISCONTINUITY ITERATIONS AND  1 ARE EQUILIBRIUM ITERATIONS.

 TIME INCREMENT COMPLETED  0.100    ,  FRACTION OF STEP COMPLETED  0.970    
 STEP TIME COMPLETED        9.70    ,  TOTAL TIME COMPLETED         9.70    


  INCREMENT    98 STARTS. ATTEMPT NUMBER  1, TIME INCREMENT  0.100    

  NUMBER OF EQUATIONS =        8     NUMBER OF FLOATING PT. OPERATIONS =  3.52E+02

     CHECK POINT   START OF SOLVER    

     CHECK POINT  END OF SOLVER       

       ELAPSED USER TIME (SEC)      =   0.0000    
       ELAPSED SYSTEM TIME (SEC)    =   0.0000    
       ELAPSED TOTAL CPU TIME (SEC) =   0.0000    
       ELAPSED WALLCLOCK TIME (SEC) =          0
 

 ***WARNING: SOLVER PROBLEM. NUMERICAL SINGULARITY WHEN PROCESSING NODE 
             BLOCK-1.3 D.O.F. 1 RATIO = 1.19170E+15.

               CONVERGENCE CHECKS FOR EQUILIBRIUM ITERATION     1


 AVERAGE FORCE                      7.713E+08   TIME AVG. FORCE       3.886E+08
 LARGEST RESIDUAL FORCE            -3.689E-07   AT NODE          4   DOF  1
   INSTANCE: BLOCK-1                                                                         
 LARGEST INCREMENT OF DISP.        -1.000E-03   AT NODE          1   DOF  2
   INSTANCE: BLOCK-1                                                                         
 LARGEST CORRECTION TO DISP.       -2.302E-08   AT NODE          2   DOF  1
   INSTANCE: BLOCK-1                                                                         
          THE FORCE     EQUILIBRIUM RESPONSE WAS LINEAR IN THIS INCREMENT

 ITERATION SUMMARY FOR THE INCREMENT:   1 TOTAL ITERATIONS, OF WHICH
   0 ARE SEVERE DISCONTINUITY ITERATIONS AND  1 ARE EQUILIBRIUM ITERATIONS.

 TIME INCREMENT COMPLETED  0.100    ,  FRACTION OF STEP COMPLETED  0.980    
 STEP TIME COMPLETED        9.80    ,  TOTAL TIME COMPLETED         9.80    


  INCREMENT    99 STARTS. ATTEMPT NUMBER  1, TIME INCREMENT  0.100    

  NUMBER OF EQUATIONS =        8     NUMBER OF FLOATING PT. OPERATIONS =  3.52E+02

     CHECK POINT   START OF SOLVER    

     CHECK POINT  END OF SOLVER       

       ELAPSED USER TIME (SEC)      =   0.0000    
       ELAPSED SYSTEM TIME (SEC)    =   0.0000    
       ELAPSED TOTAL CPU TIME (SEC) =   0.0000    
       ELAPSED WALLCLOCK TIME (SEC) =          0
 

 ***WARNING: SOLVER PROBLEM. NUMERICAL SINGULARITY WHEN PROCESSING NODE 
             BLOCK-1.3 D.O.F. 1 RATIO = 5.95797E+15.

               CONVERGENCE CHECKS FOR EQUILIBRIUM ITERATION     1


 AVERAGE FORCE                      7.793E+08   TIME AVG. FORCE       3.926E+08
 LARGEST RESIDUAL FORCE             4.426E-07   AT NODE          1   DOF  1
   INSTANCE: BLOCK-1                                                                         
 LARGEST INCREMENT OF DISP.        -1.000E-03   AT NODE          1   DOF  2
   INSTANCE: BLOCK-1                                                                         
 LARGEST CORRECTION TO DISP.        4.470E-08   AT NODE          3   DOF  1
   INSTANCE: BLOCK-1                                                                         
          THE FORCE     EQUILIBRIUM RESPONSE WAS LINEAR IN THIS INCREMENT

 ITERATION SUMMARY FOR THE INCREMENT:   1 TOTAL ITERATIONS, OF WHICH
   0 ARE SEVERE DISCONTINUITY ITERATIONS AND  1 ARE EQUILIBRIUM ITERATIONS.

 TIME INCREMENT COMPLETED  0.100    ,  FRACTION OF STEP COMPLETED  0.990    
 STEP TIME COMPLETED        9.90    ,  TOTAL TIME COMPLETED         9.90    


  INCREMENT   100 STARTS. ATTEMPT NUMBER  1, TIME INCREMENT  0.100    

  NUMBER OF EQUATIONS =        8     NUMBER OF FLOATING PT. OPERATIONS =  3.52E+02

     CHECK POINT   START OF SOLVER    

     CHECK POINT  END OF SOLVER       

       ELAPSED USER TIME (SEC)      =   0.0000    
       ELAPSED SYSTEM TIME (SEC)    =   0.0000    
       ELAPSED TOTAL CPU TIME (SEC) =   0.0000    
       ELAPSED WALLCLOCK TIME (SEC) =          0
 

 ***WARNING: SOLVER PROBLEM. NUMERICAL SINGULARITY WHEN PROCESSING NODE 
             BLOCK-1.3 D.O.F. 1 RATIO = 2.97871E+15.

               CONVERGENCE CHECKS FOR EQUILIBRIUM ITERATION     1


 AVERAGE FORCE                      7.872E+08   TIME AVG. FORCE       3.965E+08
 LARGEST RESIDUAL FORCE             3.689E-07   AT NODE          1   DOF  1
   INSTANCE: BLOCK-1                                                                         
 LARGEST INCREMENT OF DISP.        -1.000E-03   AT NODE          1   DOF  2
   INSTANCE: BLOCK-1                                                                         
 LARGEST CORRECTION TO DISP.        2.980E-08   AT NODE          4   DOF  1
   INSTANCE: BLOCK-1                                                                         
          THE FORCE     EQUILIBRIUM RESPONSE WAS LINEAR IN THIS INCREMENT

 ITERATION SUMMARY FOR THE INCREMENT:   1 TOTAL ITERATIONS, OF WHICH
   0 ARE SEVERE DISCONTINUITY ITERATIONS AND  1 ARE EQUILIBRIUM ITERATIONS.

 TIME INCREMENT COMPLETED  0.100    ,  FRACTION OF STEP COMPLETED   1.00    
 STEP TIME COMPLETED        10.0    ,  TOTAL TIME COMPLETED         10.0    


          THE ANALYSIS HAS BEEN COMPLETED



     ANALYSIS SUMMARY:
     TOTAL OF        100  INCREMENTS
                       0  CUTBACKS IN AUTOMATIC INCREMENTATION
                     101  ITERATIONS INCLUDING CONTACT ITERATIONS IF PRESENT
                     101  PASSES THROUGH THE EQUATION SOLVER OF WHICH 
                     101  INVOLVE MATRIX DECOMPOSITION, INCLUDING
                       0  DECOMPOSITION(S) OF THE MASS MATRIX
                       1  REORDERING OF EQUATIONS TO MINIMIZE WAVEFRONT
                       0  ADDITIONAL RESIDUAL EVALUATIONS FOR LINE SEARCHES
                       0  ADDITIONAL OPERATOR EVALUATIONS FOR LINE SEARCHES
                       0  WARNING MESSAGES DURING USER INPUT PROCESSING
                     123  WARNING MESSAGES DURING ANALYSIS
                     101  ANALYSIS WARNINGS ARE NUMERICAL PROBLEM MESSAGES
                       0  ANALYSIS WARNINGS ARE NEGATIVE EIGENVALUE MESSAGES
                       0  ERROR MESSAGES



     JOB TIME SUMMARY
       USER TIME (SEC)      =   1.7000    
       SYSTEM TIME (SEC)    =  0.80000    
       TOTAL CPU TIME (SEC) =   2.5000    
       WALLCLOCK TIME (SEC) =          6
